geometry optimzed in LAMMPS
_audit_creation_date              2020-12-01 
_audit_creation_method            'lammps2cif' 
_symmetry_space_group_name_H-M    'P1' 
_symmetry_Int_Tables_number       1 
_symmetry_cell_setting            triclinic 
loop_ 
_symmetry_equiv_pos_as_xyz 
  x,y,z 
_cell_length_a                    34.21946724 
_cell_length_b                    32.961068973694466 
_cell_length_c                    51.48575188059677 
_cell_angle_alpha                 88.21002003547181 
_cell_angle_beta                  95.79070108042575 
_cell_angle_gamma                 121.20464753976272 
loop_ 
_atom_site_label 
_atom_site_type_symbol 
_atom_site_fract_x 
_atom_site_fract_y 
_atom_site_fract_z 
_atom_site_charge 
O1          O  0.00037540  0.98019129  0.39680224    -0.81200
O2          O  0.04217219  0.98885368  0.27970110    -0.65900
O3          O  0.04417354  0.02377777  0.35086419    -1.12500
C4          C  0.90011454  0.00260300  0.31791986     1.05700
O5          O  0.02543572  0.04288806  0.26677354    -0.79100
O6          O  0.99187279  0.08620611  0.29517123    -0.66700
Ni7        Ni  0.05303712  0.99061623  0.37971194     1.34900
C8          C  0.00678986  0.10620012  0.31770399     0.84400
O9          O  0.10385808  0.01289646  0.32269969    -0.79600
O10         O  0.10630498  0.99798722  0.36579705    -0.89900
C11         C  0.03727389  0.01348078  0.26150971     0.84000
O12         O  0.01864994  0.92724003  0.36539334    -0.68100
O13         O  0.91171782  0.00348939  0.29500232    -0.87400
C14         C  0.01456905  0.91194544  0.34230854     0.84800
C15         C  0.12190101  0.00436768  0.34352620     1.06400
H16         H  0.96246988  0.96268640  0.31046692     0.38200
O17         O  0.98468323  0.99636515  0.31156934    -1.10000
O18         O  0.01210661  0.08475209  0.33766935    -0.66700
Ni19       Ni  0.98555767  0.01779875  0.34567022     1.26300
O20         O  0.02018786  0.93772460  0.32234889    -0.66900
O21         O  0.92621594  0.00945551  0.33891955    -0.79200
C22         C  0.98870894  0.01047351  0.40015383     0.84200
O23         O  0.98786550  0.03610639  0.38134477    -0.66400
Ni24       Ni  0.96911149  0.02303434  0.28198967     1.27400
Ni25       Ni  0.04430003  0.00466577  0.31604340     1.26100
H26         H  0.06757814  0.05694856  0.35337609     0.38800
O27         O  0.02634198  0.48544896  0.39800004    -0.81200
O28         O  0.05314073  0.50224021  0.27997916    -0.65900
O29         O  0.05791669  0.53335591  0.35206827    -1.12500
C30         C  0.90592803  0.49838556  0.32556222     1.05700
O31         O  0.02874342  0.55091288  0.26895856    -0.79100
O32         O  0.99791258  0.58897247  0.30152659    -0.66700
Ni33       Ni  0.07968210  0.50777777  0.37954593     1.34900
C34         C  0.01022518  0.60659940  0.32458339     0.84400
O35         O  0.11909824  0.53221190  0.32017967    -0.79600
O36         O  0.13490739  0.52837727  0.36349766    -0.89900
C37         C  0.04477707  0.52581211  0.26260456     0.84000
O38         O  0.05476981  0.44523506  0.36516405    -0.68100
O39         O  0.91819779  0.50498680  0.30241692    -0.87400
C40         C  0.04167914  0.42725894  0.34213631     0.84800
C41         C  0.14515342  0.53310145  0.33999220     1.06400
H42         H  0.97474723  0.46692610  0.31286556     0.38200
O43         O  0.99450232  0.50097972  0.31475805    -1.10000
O44         O  0.01326897  0.58353108  0.34431989    -0.66700
Ni45       Ni  0.99522844  0.51769136  0.35019559     1.26300
O46         O  0.03833401  0.45038412  0.32251029    -0.66900
O47         O  0.93207744  0.50141360  0.34604531    -0.79200
C48         C  0.01209220  0.51190834  0.40472033     0.84200
O49         O  0.99913771  0.53180831  0.38710186    -0.66400
Ni50       Ni  0.97425150  0.52708260  0.28695119     1.27400
Ni51       Ni  0.05671132  0.51637766  0.31664576     1.26100
H52         H  0.07755674  0.56744356  0.35383989     0.38800
O53         O  0.47855897  0.91064938  0.39927435    -0.81200
O54         O  0.49749250  0.91905731  0.28010830    -0.65900
O55         O  0.50694458  0.95247191  0.35188112    -1.12500
C56         C  0.35382368  0.91621826  0.32810620     1.05700
O57         O  0.47347792  0.96886773  0.27194526    -0.79100
O58         O  0.43703686  0.00297646  0.30235885    -0.66700
Ni59       Ni  0.52881001  0.92719263  0.37918363     1.34900
C60         C  0.45532759  0.02413126  0.32431422     0.84400
O61         O  0.56657590  0.95236069  0.31861791    -0.79600
O62         O  0.58116246  0.94355718  0.36139122    -0.89900
C63         C  0.49011252  0.94524304  0.26431883     0.84000
O64         O  0.49972402  0.86311852  0.36625317    -0.68100
O65         O  0.36229303  0.91535786  0.30458988    -0.87400
C66         C  0.48990988  0.84561417  0.34318384     0.84800
C67         C  0.59283066  0.95276761  0.33816995     1.06400
H68         H  0.42160296  0.88305823  0.31556744     0.38200
O69         O  0.44102486  0.91724734  0.31632822    -1.10000
O70         O  0.46465998  0.00413701  0.34351682    -0.66700
Ni71       Ni  0.44499446  0.93830435  0.35097089     1.26300
O72         O  0.48839557  0.86879186  0.32308773    -0.66900
O73         O  0.38253895  0.92389432  0.34807555    -0.79200
C74         C  0.46674303  0.93987488  0.40476312     0.84200
O75         O  0.45230833  0.95735514  0.38668941    -0.66400
Ni76       Ni  0.41825133  0.94120863  0.28887513     1.27400
Ni77       Ni  0.50343911  0.93382826  0.31664446     1.26100
H78         H  0.52724468  0.98651123  0.35320401     0.38800
O79         O  0.47976111  0.40911843  0.40123019    -0.81200
O80         O  0.50362276  0.42015071  0.28178773    -0.65900
O81         O  0.51191823  0.45321828  0.35405099    -1.12500
C82         C  0.36503188  0.43094172  0.33083437     1.05700
O83         O  0.47746498  0.46730332  0.26932739    -0.79100
O84         O  0.45864585  0.51438746  0.30334595    -0.66700
Ni85       Ni  0.53045969  0.42465640  0.38153693     1.34900
C86         C  0.47126247  0.53207947  0.32640600     0.84400
O87         O  0.57073357  0.44914301  0.32174923    -0.79600
O88         O  0.58369629  0.44006647  0.36474697    -0.89900
C89         C  0.49384096  0.44210726  0.26396292     0.84000
O90         O  0.49889484  0.36089155  0.36762684    -0.68100
O91         O  0.37526068  0.43598592  0.30735312    -0.87400
C92         C  0.48648796  0.34340271  0.34449061     0.84800
C93         C  0.59633823  0.44952138  0.34173335     1.06400
H94         H  0.42601424  0.38865502  0.31577721     0.38200
O95         O  0.44717563  0.42253980  0.31731362    -1.10000
O96         O  0.47186053  0.50804245  0.34623929    -0.66700
Ni97       Ni  0.45110436  0.44169256  0.35286587     1.26300
O98         O  0.48757220  0.36819323  0.32463675    -0.66900
O99         O  0.38992821  0.42910259  0.35040318    -0.79200
C100        C  0.47013896  0.43980314  0.40726958     0.84200
O101        O  0.45831627  0.45959752  0.38917572    -0.66400
Ni102      Ni  0.42751649  0.45043139  0.28993498     1.27400
Ni103      Ni  0.50858306  0.43495235  0.31855876     1.26100
H104        H  0.53326754  0.48704069  0.35581770     0.38800
O105        O  0.07942322  0.03609209  0.05835719    -0.81200
O106        O  0.04512519  0.03883013  0.94250594    -0.65900
O107        O  0.02056296  0.01143690  0.01385083    -1.12500
C108        C  0.05147941  0.89094924  0.00049641     1.05700
O109        O  0.99597754  0.96319711  0.93395463    -0.79100
O110        O  0.95783782  0.89619399  0.96968265    -0.66700
Ni111      Ni  0.04553735  0.06052959  0.03930911     1.34900
C112        C  0.94652243  0.88875755  0.99284300     0.84400
O113        O  0.01663267  0.07526695  0.97798059    -0.79600
O114        O  0.01218732  0.08569072  0.02061211    -0.89900
C115        C  0.02257004  0.00462796  0.92597606     0.84000
O116        O  0.10064865  0.10737934  0.02516985    -0.68100
O117        O  0.03562805  0.89120824  0.97692821    -0.87400
C118        C  0.11922570  0.10944438  0.00467823     0.84800
C119        C  0.00579098  0.09196219  0.99627886     1.06400
H120        H  0.08104131  0.99317564  0.97989596     0.38200
O121        O  0.04862992  0.97916025  0.98143723    -1.10000
O122        O  0.97454992  0.91294429  0.01247240    -0.66700
Ni123      Ni  0.03862428  0.96533666  0.01748388     1.26300
O124        O  0.09859813  0.07757697  0.98650850    -0.66900
O125        O  0.05683544  0.91937660  0.01866771    -0.79200
C126        C  0.05779812  0.99653264  0.06931786     0.84200
O127        O  0.03335078  0.95924118  0.05488404    -0.66400
Ni128      Ni  0.01646616  0.92868674  0.95637115     1.27400
Ni129      Ni  0.03395305  0.02804647  0.97875717     1.26100
H130        H  0.98760235  0.99506797  0.01392775     0.38800
O131        O  0.99041883  0.50377959  0.93360139    -0.81200
O132        O  0.04862975  0.52455960  0.05244883    -0.65900
O133        O  0.02775552  0.48626946  0.98004001    -1.12500
C134        C  0.87497066  0.38231020  0.00295079     1.05700
O135        O  0.01631691  0.44899923  0.06115123    -0.79100
O136        O  0.96394098  0.37397808  0.02765285    -0.66700
Ni137      Ni  0.05013965  0.53030336  0.95288480     1.34900
C138        C  0.96876675  0.36563872  0.00467351     0.84400
O139        O  0.10496234  0.55269497  0.01347445    -0.79600
O140        O  0.11139537  0.56013780  0.97011770    -0.89900
C141        C  0.03831764  0.49198963  0.06913949     0.84000
O142        O  0.04362130  0.57859391  0.96730179    -0.68100
O143        O  0.89467875  0.39025945  0.02622813    -0.87400
C144        C  0.03736703  0.58751827  0.98981937     0.84800
C145        C  0.12840101  0.57096025  0.99392915     1.06400
H146        H  0.96113691  0.48356569  0.01754385     0.38200
O147        O  0.97540099  0.46538316  0.01577367    -1.10000
O148        O  0.97173254  0.39190463  0.98553334    -0.66700
Ni149      Ni  0.96236498  0.44407392  0.98012692     1.26300
O150        O  0.03006526  0.56001765  0.00898272    -0.66900
O151        O  0.89674333  0.40082046  0.98271624    -0.79200
C152        C  0.96601194  0.46043473  0.92635317     0.84200
O153        O  0.95337952  0.42811239  0.94327122    -0.66400
Ni154      Ni  0.95590773  0.42078220  0.04273113     1.27400
Ni155      Ni  0.04017491  0.50834544  0.01556726     1.26100
H156        H  0.04157566  0.46732927  0.97894426     0.38800
O157        O  0.51208187  0.03116132  0.06539361    -0.81200
O158        O  0.48888329  0.02936030  0.94479337    -0.65900
O159        O  0.46454288  0.00168230  0.01574909    -1.12500
C160        C  0.54430110  0.92140942  0.00696446     1.05700
O161        O  0.45920589  0.95310319  0.93779489    -0.79100
O162        O  0.44632853  0.88682857  0.97347697    -0.66700
Ni163      Ni  0.47926140  0.05016142  0.04035420     1.34900
C164        C  0.42511390  0.87921522  0.99361619     0.84400
O165        O  0.44306103  0.04895090  0.97611110    -0.79600
O166        O  0.44675492  0.07199427  0.01744585    -0.89900
C167        C  0.47347776  0.99437031  0.92912736     0.84000
O168        O  0.53680625  0.09808209  0.02909835    -0.68100
O169        O  0.53840521  0.92549999  0.98236281    -0.87400
C170        C  0.55399650  0.10610905  0.00743188     0.84800
C171        C  0.43463883  0.07003948  0.99299395     1.06400
H172        H  0.54285512  0.00982580  0.98677640     0.38200
O173        O  0.51039851  0.98656056  0.98603292    -1.10000
O174        O  0.43954048  0.90963508  0.01222278    -0.66700
Ni175      Ni  0.49661255  0.96862962  0.02083047     1.26300
O176        O  0.53366609  0.07826579  0.98764623    -0.66900
O177        O  0.52915028  0.93568025  0.02403885    -0.79200
C178        C  0.49896618  0.98933088  0.07303251     0.84200
O179        O  0.48413551  0.95542798  0.05655182    -0.66400
Ni180      Ni  0.49901984  0.94021988  0.96086752     1.27400
Ni181      Ni  0.47714060  0.01800001  0.98044909     1.26100
H182        H  0.43198172  0.97929406  0.01565311     0.38800
O183        O  0.57571230  0.51615216  0.06706682    -0.81200
O184        O  0.54470150  0.56661713  0.95281489    -0.65900
O185        O  0.52710915  0.52804800  0.02426528    -1.12500
C186        C  0.50936201  0.38786066  0.98839038     1.05700
O187        O  0.48138156  0.49881732  0.94287621    -0.79100
O188        O  0.44086727  0.41592689  0.96948903    -0.66700
Ni189      Ni  0.56851446  0.56672295  0.05277039     1.34900
C190        C  0.42726787  0.41001812  0.99212792     0.84400
O191        O  0.54156646  0.60791669  0.99678375    -0.79600
O192        O  0.56208130  0.61853291  0.04042215    -0.89900
C193        C  0.51194802  0.53943401  0.93590020     0.84000
O194        O  0.62565126  0.59370879  0.03754938    -0.68100
O195        O  0.51361365  0.40806107  0.96640663    -0.87400
C196        C  0.63565777  0.60205714  0.01407046     0.84800
C197        C  0.55215763  0.63128240  0.01825805     1.06400
H198        H  0.56609319  0.49823003  0.98285073     0.38200
O199        O  0.53542170  0.49149293  0.98454700    -1.10000
O200        O  0.45392343  0.43528361  0.01194709    -0.66700
Ni201      Ni  0.52090211  0.46771372  0.01870004     1.26300
O202        O  0.60524034  0.58451088  0.99452992    -0.66900
O203        O  0.51399331  0.40774372  0.01047849    -0.79200
C204        C  0.54080202  0.47764402  0.07315689     0.84200
O205        O  0.51103593  0.45054288  0.05492154    -0.66400
Ni206      Ni  0.49832230  0.45393890  0.95518118     1.27400
Ni207      Ni  0.53857865  0.55012854  0.98947073     1.26100
H208        H  0.49729442  0.52258664  0.02713813     0.38800
O209        O  0.01383723  0.06581278  0.59966542    -0.81200
O210        O  0.05684856  0.05592628  0.71662832    -0.65900
O211        O  0.01018991  0.01879763  0.64477542    -1.12500
C212        C  0.89605824  0.05380926  0.66692266     1.05700
O213        O  0.98544326  0.00690460  0.72499452    -0.79100
O214        O  0.90672503  0.96956784  0.69353518    -0.66700
Ni215      Ni  0.04877646  0.04112112  0.61757198     1.34900
C216        C  0.89537244  0.94733497  0.67177900     0.84400
O217        O  0.08616146  0.02495027  0.67777394    -0.79600
O218        O  0.08611662  0.01804874  0.63432491    -0.89900
C219        C  0.02773476  0.03246922  0.73294535     0.84000
O220        O  0.09332471  0.10299211  0.63107251    -0.68100
O221        O  0.91281198  0.05420660  0.69036650    -0.87400
C222        C  0.10421533  0.12443222  0.65304932     0.84800
C223        C  0.10197652  0.01742579  0.65788009     1.06400
H224        H  0.00259458  0.08746405  0.67974896     0.38200
O225        O  0.98840845  0.05336020  0.67932583    -1.10000
O226        O  0.91686217  0.96619448  0.65167174    -0.66700
Ni227      Ni  0.96105871  0.03235094  0.64425711     1.26300
O228        O  0.08165535  0.10526698  0.67270876    -0.66900
O229        O  0.91138465  0.04598226  0.64679296    -0.79200
C230        C  0.97224633  0.03860046  0.59074372     0.84200
O231        O  0.94215010  0.01603231  0.60691090    -0.66400
Ni232      Ni  0.95061435  0.03155803  0.70688686     1.27400
Ni233      Ni  0.03718025  0.03941289  0.67980379     1.26100
H234        H  0.99611506  0.98471370  0.64425067     0.38800
O235        O  0.00901326  0.50023924  0.72890078    -0.81200
O236        O  0.03691144  0.55764533  0.61542634    -0.65900
O237        O  0.00118442  0.54844990  0.68485755    -1.12500
C238        C  0.87505343  0.40576847  0.65092228     1.05700
O239        O  0.96914444  0.54611743  0.60240800    -0.79100
O240        O  0.89766881  0.51566317  0.63108686    -0.66700
Ni241      Ni  0.04345679  0.56258462  0.71481504     1.34900
C242        C  0.88778600  0.51595264  0.65414893     0.84400
O243        O  0.07319551  0.61616095  0.65841751    -0.79600
O244        O  0.08017297  0.62533398  0.70240309    -0.89900
C245        C  0.00773259  0.55420503  0.59685554     0.84000
O246        O  0.08419735  0.54595132  0.70212428    -0.68100
O247        O  0.88217083  0.42657105  0.62904466    -0.87400
C248        C  0.08832286  0.53345703  0.67997066     0.84800
C249        C  0.09321686  0.63961860  0.67976473     1.06400
H250        H  0.97866405  0.47079270  0.64247056     0.38200
O251        O  0.96900862  0.49303228  0.64531895    -1.10000
O252        O  0.90710985  0.50637733  0.67388779    -0.66700
Ni253      Ni  0.95074994  0.48515098  0.67980329     1.26300
O254        O  0.06152849  0.52911491  0.65962003    -0.66900
O255        O  0.90102853  0.42258135  0.67220747    -0.79200
C256        C  0.96769042  0.48210732  0.73390909     0.84200
O257        O  0.93753658  0.47854749  0.71595443    -0.66400
Ni258      Ni  0.92667631  0.48646415  0.61654476     1.27400
Ni259      Ni  0.02164037  0.55458750  0.65101127     1.26100
H260        H  0.98928515  0.56924888  0.68579737     0.38800
O261        O  0.54000668  0.04581788  0.72975367    -0.81200
O262        O  0.51776916  0.02828309  0.60987746    -0.65900
O263        O  0.50491814  0.05461533  0.67921299    -1.12500
C264        C  0.40274690  0.89101746  0.67907528     1.05700
O265        O  0.44235135  0.98983237  0.60249160    -0.79100
O266        O  0.38410155  0.96726364  0.63942469    -0.66700
Ni267      Ni  0.55606938  0.09304498  0.70329819     1.34900
C268        C  0.38231228  0.98547409  0.66035674     0.84400
O269        O  0.55215312  0.10935887  0.63838695    -0.79600
O270        O  0.57342070  0.14247050  0.67900256    -0.89900
C271        C  0.48156417  0.00806264  0.59408607     0.84000
O272        O  0.60030803  0.07930446  0.69224402    -0.68100
O273        O  0.39707315  0.89409304  0.65432563    -0.87400
C274        C  0.60182814  0.05755523  0.67270085     0.84800
C275        C  0.57186374  0.14511341  0.65416390     1.06400
H276        H  0.49148883  0.96293960  0.65386954     0.38200
O277        O  0.47450896  0.97902377  0.65283287    -1.10000
O278        O  0.41207357  0.99556596  0.67998530    -0.66700
Ni279      Ni  0.46683174  0.99047562  0.68746770     1.26300
O280        O  0.56881891  0.03895981  0.65443111    -0.66900
O281        O  0.42986167  0.92556224  0.69456023    -0.79200
C282        C  0.50059579  0.02338115  0.73817313     0.84200
O283        O  0.46458183  0.00460042  0.72243028    -0.66400
Ni284      Ni  0.42113803  0.94332864  0.62937611     1.27400
Ni285      Ni  0.51419997  0.04351299  0.64491200     1.26100
H286        H  0.48663224  0.06929495  0.67741728     0.38800
O287        O  0.45503699  0.50204373  0.60331389    -0.81200
O288        O  0.46267800  0.52552152  0.72494411    -0.65900
O289        O  0.47721525  0.55135423  0.65138554    -1.12500
C290        C  0.60269892  0.52550883  0.67140502     1.05700
O291        O  0.53628945  0.57961178  0.73108615    -0.79100
O292        O  0.59984324  0.61638652  0.69675626    -0.66700
Ni293      Ni  0.42734234  0.52480803  0.62489208     1.34900
C294        C  0.60116698  0.63193815  0.67379009     0.84400
O295        O  0.41260188  0.54407964  0.68643115    -0.79600
O296        O  0.39425256  0.54482313  0.64336837    -0.89900
C297        C  0.49817392  0.55318703  0.74046178     0.84000
O298        O  0.39388402  0.46319012  0.63885994    -0.68100
O299        O  0.60027025  0.53440171  0.69503325    -0.87400
C300        C  0.39365657  0.44446020  0.66084644     0.84800
C301        C  0.38684880  0.54600955  0.66702789     1.06400
H302        H  0.50442441  0.49207944  0.68835077     0.38200
O303        O  0.51624907  0.52561339  0.68641399    -1.10000
O304        O  0.57315670  0.60617577  0.65458470    -0.66700
Ni305      Ni  0.52638816  0.53857455  0.65046767     1.26300
O306        O  0.42145758  0.46771200  0.68081450    -0.66900
O307        O  0.57572806  0.52525273  0.65204883    -0.79200
C308        C  0.49553196  0.52387840  0.59649593     0.84200
O309        O  0.53020636  0.54708637  0.61319445    -0.66400
Ni310      Ni  0.56657785  0.55603988  0.71223936     1.27400
Ni311      Ni  0.46543251  0.53553109  0.68734752     1.26100
H312        H  0.49061291  0.58529215  0.65042222     0.38800
C313        C  0.74334433  0.26792953  0.60590650    -0.18100
C314        C  0.69622914  0.23517975  0.60351883    -0.20300
C315        C  0.66915216  0.23404319  0.62253516     0.20400
C316        C  0.68920634  0.26735881  0.64358989    -0.03200
C317        C  0.73668939  0.29901531  0.64650539    -0.06300
C318        C  0.76388437  0.29921190  0.62757698     0.20600
C319        C  0.75703687  0.32993795  0.66857928     0.18800
C320        C  0.72970550  0.33041938  0.68692822    -0.17800
C321        C  0.68236335  0.29928445  0.68386010    -0.20000
C322        C  0.66212992  0.26701273  0.66260866     0.20300
C323        C  0.61635573  0.23090967  0.66165167    -0.33000
C324        C  0.59979762  0.19247849  0.64406359     0.01000
C325        C  0.62370686  0.19696443  0.62259279    -0.24300
C326        C  0.81098447  0.33165790  0.63034874    -0.28900
C327        C  0.83085605  0.36294674  0.65199297     0.06700
C328        C  0.80427029  0.36096884  0.67147199    -0.27600
H329        H  0.76385822  0.26808639  0.59114499     0.11400
H330        H  0.68121995  0.20984831  0.58726001     0.12500
H331        H  0.74498328  0.35453432  0.70373511     0.11600
H332        H  0.66186056  0.29908854  0.69864598     0.10800
H333        H  0.59663658  0.22807968  0.67757914     0.16200
H334        H  0.61009909  0.16790418  0.60846431     0.12100
H335        H  0.83189244  0.33429606  0.61514051     0.15000
H336        H  0.81978345  0.38648892  0.68769184     0.14800
C337        C  0.26990604  0.81814431  0.72355566    -0.18100
C338        C  0.22249859  0.78675774  0.72002570    -0.20300
C339        C  0.20360090  0.75001026  0.70114627     0.20400
C340        C  0.23271010  0.74409609  0.68608235    -0.03200
C341        C  0.28029145  0.77483612  0.69005448    -0.06300
C342        C  0.29885974  0.81280551  0.70839136     0.20600
C343        C  0.30909090  0.76951405  0.67442293     0.18800
C344        C  0.29045059  0.73198488  0.65611441    -0.17800
C345        C  0.24314691  0.70136336  0.65220285    -0.20000
C346        C  0.21422868  0.70793781  0.66667217     0.20300
C347        C  0.16709442  0.67788021  0.66256977    -0.33000
C348        C  0.13828661  0.68153190  0.67861372     0.01000
C349        C  0.15626972  0.71807289  0.69752938    -0.24300
C350        C  0.34521967  0.84763561  0.70905440    -0.28900
C351        C  0.37134256  0.84614820  0.69023540     0.06700
C352        C  0.35513302  0.80490667  0.67519859    -0.27600
H353        H  0.28379388  0.84737759  0.73756834     0.11400
H354        H  0.20059540  0.79163835  0.73174774     0.12500
H355        H  0.31226385  0.72751676  0.64409740     0.11600
H356        H  0.22913008  0.67300333  0.63760745     0.10800
H357        H  0.15319582  0.64873591  0.64844236     0.16200
H358        H  0.13374409  0.72012421  0.71011620     0.12100
H359        H  0.35845793  0.87962066  0.72089572     0.15000
H360        H  0.37616728  0.80402088  0.66105812     0.14800
C361        C  0.72675432  0.54874829  0.61882320    -0.18100
C362        C  0.76880191  0.55146108  0.61738533    -0.20300
C363        C  0.78836435  0.53734425  0.63837228     0.20400
C364        C  0.76506209  0.52011602  0.66097381    -0.03200
C365        C  0.72262599  0.51749770  0.66245582    -0.06300
C366        C  0.70343222  0.53211328  0.64133845     0.20600
C367        C  0.69981452  0.50093197  0.68525161     0.18800
C368        C  0.71875849  0.48579680  0.70599910    -0.17800
C369        C  0.76036390  0.48786110  0.70441048    -0.20000
C370        C  0.78406476  0.50539365  0.68211193     0.20300
C371        C  0.82584495  0.50739755  0.68042262    -0.33000
C372        C  0.84897579  0.52334972  0.65770763     0.01000
C373        C  0.83014281  0.53902141  0.63691071    -0.24300
C374        C  0.66221300  0.53137584  0.64348828    -0.28900
C375        C  0.64057889  0.51735139  0.66678521     0.06700
C376        C  0.65924607  0.50113316  0.68728449    -0.27600
H377        H  0.71270193  0.56015356  0.60238775     0.11400
H378        H  0.78602577  0.56459152  0.59979478     0.12500
H379        H  0.70155844  0.47269904  0.72359980     0.11600
H380        H  0.77415075  0.47594905  0.72072970     0.10800
H381        H  0.83922059  0.49438969  0.69639834     0.16200
H382        H  0.84717526  0.55101958  0.61918629     0.12100
H383        H  0.64846639  0.54424479  0.62763470     0.15000
H384        H  0.64285878  0.48994377  0.70525385     0.14800
C385        C  0.22110918  0.52407312  0.72204672    -0.18100
C386        C  0.26397053  0.52840260  0.72071425    -0.20300
C387        C  0.28262042  0.53539858  0.69670327     0.20400
C388        C  0.25708056  0.53744359  0.67383599    -0.03200
C389        C  0.21356898  0.53261867  0.67513668    -0.06300
C390        C  0.19567199  0.52632900  0.69938537     0.20600
C391        C  0.18838606  0.53489633  0.65218766     0.18800
C392        C  0.20670098  0.54153103  0.62816500    -0.17800
C393        C  0.24953813  0.54628233  0.62688502    -0.20000
C394        C  0.27505122  0.54457196  0.64959989     0.20300
C395        C  0.31808058  0.54959674  0.64827321    -0.33000
C396        C  0.34415550  0.54698148  0.67072534     0.01000
C397        C  0.32593758  0.53996185  0.69504657    -0.24300
C398        C  0.15337203  0.52373679  0.70061771    -0.28900
C399        C  0.12841449  0.52728228  0.67788087     0.06700
C400        C  0.14601835  0.53187218  0.65366858    -0.27600
H401        H  0.20796444  0.51924354  0.74089652     0.11400
H402        H  0.28267227  0.52656532  0.73853904     0.12500
H403        H  0.18804511  0.54345461  0.61033873     0.11600
H404        H  0.26284403  0.55151953  0.60805597     0.10800
H405        H  0.33077376  0.55460095  0.62927430     0.16200
H406        H  0.34483433  0.53708502  0.71248500     0.12100
H407        H  0.14056539  0.52040762  0.71946042     0.15000
H408        H  0.12787210  0.53543409  0.63607390     0.14800
C409        C  0.77000306  0.79818573  0.62408028    -0.18100
C410        C  0.72743545  0.75527053  0.62395951    -0.20300
C411        C  0.70371451  0.74050029  0.64646564     0.20400
C412        C  0.72340132  0.76973063  0.66922276    -0.03200
C413        C  0.76681894  0.81235979  0.66952559    -0.06300
C414        C  0.79033817  0.82703575  0.64683755     0.20600
C415        C  0.78669246  0.84015776  0.69268135     0.18800
C416        C  0.76301716  0.82616592  0.71508369    -0.17800
C417        C  0.71998639  0.78469938  0.71465804    -0.20000
C418        C  0.70011836  0.75603051  0.69194624     0.20300
C419        C  0.65818876  0.71301713  0.69206766    -0.33000
C420        C  0.63913623  0.68189559  0.67013401     0.01000
C421        C  0.66162824  0.69653038  0.64703011    -0.24300
C422        C  0.83327350  0.87037271  0.64735828    -0.28900
C423        C  0.85321522  0.89848583  0.67056476     0.06700
C424        C  0.82960139  0.88198582  0.69314984    -0.27600
H425        H  0.78722240  0.80858831  0.60639121     0.11400
H426        H  0.71312040  0.73353849  0.60622989     0.12500
H427        H  0.77777206  0.84739943  0.73298481     0.11600
H428        H  0.70255410  0.77462487  0.73227823     0.10800
H429        H  0.64137181  0.70254221  0.70992015     0.16200
H430        H  0.64777795  0.67281678  0.63005886     0.12100
H431        H  0.85058771  0.88246958  0.62973861     0.15000
H432        H  0.84381667  0.90265431  0.71125928     0.14800
C433        C  0.26716702  0.31349850  0.70591268    -0.18100
C434        C  0.22513123  0.27003245  0.70440587    -0.20300
C435        C  0.20712516  0.24296481  0.68098513     0.20400
C436        C  0.23239892  0.25984405  0.65901951    -0.03200
C437        C  0.27492554  0.30355772  0.66057413    -0.06300
C438        C  0.29231361  0.33084535  0.68407228     0.20600
C439        C  0.29949326  0.32039676  0.63839226     0.18800
C440        C  0.28212634  0.29316542  0.61508995    -0.17800
C441        C  0.24033639  0.24998079  0.61360157    -0.20000
C442        C  0.21503293  0.23331337  0.63535107     0.20300
C443        C  0.17269698  0.19049733  0.63369281    -0.33000
C444        C  0.14683249  0.17275922  0.65538457     0.01000
C445        C  0.16453614  0.19941080  0.67909996    -0.24300
C446        C  0.33353383  0.37560826  0.68497129    -0.28900
C447        C  0.35706908  0.39353742  0.66249132     0.06700
C448        C  0.34018157  0.36490679  0.63953635    -0.27600
H449        H  0.27979260  0.33381265  0.72414143     0.11400
H450        H  0.20649406  0.25777715  0.72155064     0.12500
H451        H  0.30061432  0.30555345  0.59788647     0.11600
H452        H  0.22756762  0.22980308  0.59531669     0.10800
H453        H  0.16030262  0.17052995  0.61533772     0.16200
H454        H  0.14558134  0.18609545  0.69609226     0.12100
H455        H  0.34571462  0.39757477  0.70260870     0.15000
H456        H  0.35786182  0.37825283  0.62207933     0.14800
C457        C  0.69983341  0.01574036  0.62639101    -0.18100
C458        C  0.74141859  0.01711977  0.62493847    -0.20300
C459        C  0.77777270  0.03915304  0.64487023     0.20400
C460        C  0.77153752  0.05978278  0.66654280    -0.03200
C461        C  0.72926216  0.05802442  0.66812296    -0.06300
C462        C  0.69320212  0.03607986  0.64790282     0.20600
C463        C  0.72310851  0.07809845  0.69001279     0.18800
C464        C  0.75908926  0.09966713  0.71012402    -0.17800
C465        C  0.80065737  0.10148352  0.70854913    -0.20000
C466        C  0.80729360  0.08165466  0.68685671     0.20300
C467        C  0.84860790  0.08227716  0.68558376    -0.33000
C468        C  0.85532126  0.06070120  0.66445755     0.01000
C469        C  0.81956460  0.03980749  0.64388384    -0.24300
C470        C  0.65142268  0.03503610  0.64950660    -0.28900
C471        C  0.64488941  0.05546703  0.67124713     0.06700
C472        C  0.68134595  0.07660115  0.69144847    -0.27600
H473        H  0.67269739  0.99853943  0.61063055     0.11400
H474        H  0.74507095  0.00075816  0.60816199     0.12500
H475        H  0.75510494  0.11521486  0.72714865     0.11600
H476        H  0.82760965  0.11821591  0.72445423     0.10800
H477        H  0.87523715  0.09838866  0.70171136     0.16200
H478        H  0.82334984  0.02220720  0.62774050     0.12100
H479        H  0.62423492  0.01875146  0.63368892     0.15000
H480        H  0.67756833  0.09262514  0.70834353     0.14800
C481        C  0.24490008  0.98070916  0.61540956    -0.18100
C482        C  0.20513623  0.98279754  0.61543511    -0.20300
C483        C  0.19370833  0.99410575  0.63846279     0.20400
C484        C  0.22286025  0.00378787  0.66171652    -0.03200
C485        C  0.26331931  0.00142605  0.66171940    -0.06300
C486        C  0.27408557  0.98964567  0.63843784     0.20600
C487        C  0.29273449  0.01053284  0.68488521     0.18800
C488        C  0.28137206  0.02267465  0.70781307    -0.17800
C489        C  0.24149600  0.02540236  0.70775580    -0.20000
C490        C  0.21162164  0.01582332  0.68480294     0.20300
C491        C  0.17128379  0.01864764  0.68429535    -0.33000
C492        C  0.14198005  0.00930693  0.66085996     0.01000
C493        C  0.15384172  0.99641153  0.63828771    -0.24300
C494        C  0.31338791  0.98623016  0.63842237    -0.28900
C495        C  0.34286801  0.99385216  0.66138587     0.06700
C496        C  0.33236161  0.00669835  0.68464630    -0.27600
H497        H  0.25266647  0.97173546  0.59732161     0.11400
H498        H  0.18324608  0.97555652  0.59733724     0.12500
H499        H  0.30332287  0.03000089  0.72588614     0.11600
H500        H  0.23398214  0.03492203  0.72575817     0.10800
H501        H  0.16344003  0.02917110  0.70184502     0.16200
H502        H  0.13237137  0.98901679  0.62000558     0.12100
H503        H  0.32053929  0.97670746  0.62028420     0.15000
H504        H  0.35435828  0.01279081  0.70257679     0.14800
C505        C  0.58252638  0.61818264  0.82778575    -0.18100
C506        C  0.58489843  0.61757761  0.85516800    -0.20300
C507        C  0.54552514  0.58800901  0.86791393     0.20400
C508        C  0.50307553  0.55999705  0.85267265    -0.03200
C509        C  0.50070026  0.56048057  0.82494237    -0.06300
C510        C  0.54075077  0.58917025  0.81250633     0.20600
C511        C  0.45857119  0.53104541  0.80971683     0.18800
C512        C  0.41892390  0.50278180  0.82247512    -0.17800
C513        C  0.42124268  0.50231078  0.84983323    -0.20000
C514        C  0.46326571  0.53004424  0.86508703     0.20300
C515        C  0.46640105  0.52655698  0.89243304    -0.33000
C516        C  0.50889582  0.55214850  0.90785979     0.01000
C517        C  0.54815730  0.58423957  0.89544601    -0.24300
C518        C  0.53870955  0.58736510  0.78507483    -0.28900
C519        C  0.49725414  0.55676872  0.76949613     0.06700
C520        C  0.45705970  0.52933001  0.78213947    -0.27600
H521        H  0.61367892  0.64066899  0.81853919     0.11400
H522        H  0.61779473  0.63949988  0.86636877     0.12500
H523        H  0.38618626  0.48019757  0.81128681     0.11600
H524        H  0.39023293  0.47926362  0.85908061     0.10800
H525        H  0.43578994  0.50206192  0.90166570     0.16200
H526        H  0.58109099  0.60405821  0.90696799     0.12100
H527        H  0.57010908  0.60911125  0.77590426     0.15000
H528        H  0.42491591  0.50589409  0.77063268     0.14800
C529        C  0.52604034  0.78874123  0.05757875    -0.18100
C530        C  0.52238175  0.74461670  0.05743439    -0.20300
C531        C  0.54088002  0.73276102  0.03799852     0.20400
C532        C  0.56384482  0.76570023  0.01867317    -0.03200
C533        C  0.56793952  0.81028680  0.01898384    -0.06300
C534        C  0.54833287  0.82152053  0.03832334     0.20600
C535        C  0.58960285  0.84267469  0.99921048     0.18800
C536        C  0.60841836  0.83094323  0.97986686    -0.17800
C537        C  0.60444645  0.78662780  0.97958999    -0.20000
C538        C  0.58169725  0.75363181  0.99867995     0.20300
C539        C  0.57633268  0.70869695  0.99814817    -0.33000
C540        C  0.55422038  0.67642351  0.01761891     0.01000
C541        C  0.53668739  0.68843380  0.03748835    -0.24300
C542        C  0.54787690  0.86357011  0.03677254    -0.28900
C543        C  0.56456584  0.89297461  0.01538973     0.06700
C544        C  0.58858824  0.88443896  0.99787131    -0.27600
H545        H  0.51048956  0.79679488  0.07237094     0.11400
H546        H  0.50453605  0.71951455  0.07229629     0.12500
H547        H  0.62501808  0.85548892  0.96453839     0.11600
H548        H  0.61851467  0.77788203  0.96423764     0.10800
H549        H  0.59034799  0.69919993  0.98306310     0.16200
H550        H  0.51960416  0.66308647  0.05243955     0.12100
H551        H  0.52938435  0.87017958  0.05033139     0.15000
H552        H  0.60198134  0.90760891  0.98152140     0.14800
C553        C  0.47049870  0.24536688  0.93833671    -0.18100
C554        C  0.45343110  0.19665856  0.93722276    -0.20300
C555        C  0.43414544  0.16873124  0.95876161     0.20400
C556        C  0.42771972  0.18902754  0.98048765    -0.03200
C557        C  0.44617961  0.23816969  0.98195174    -0.06300
C558        C  0.46921470  0.26658837  0.96117734     0.20600
C559        C  0.44458405  0.25916490  0.00499548     0.18800
C560        C  0.42076254  0.23051968  0.02531660    -0.17800
C561        C  0.40201807  0.18160704  0.02376844    -0.20000
C562        C  0.40739682  0.16108169  0.00200844     0.20300
C563        C  0.39874573  0.11491904  0.00296934    -0.33000
C564        C  0.41475983  0.09880168  0.98410026     0.01000
C565        C  0.42702610  0.12298604  0.96058173    -0.24300
C566        C  0.49198603  0.31580161  0.96399288    -0.28900
C567        C  0.49232560  0.33700620  0.98737016     0.06700
C568        C  0.46792295  0.30846869  0.00761678    -0.27600
H569        H  0.48709351  0.26678356  0.92197445     0.11400
H570        H  0.45780548  0.18141905  0.92020675     0.12500
H571        H  0.41842180  0.24613378  0.04286922     0.11600
H572        H  0.38614188  0.16036046  0.04032680     0.10800
H573        H  0.38741679  0.09505960  0.02063499     0.16200
H574        H  0.43812310  0.10986570  0.94559736     0.12100
H575        H  0.50945198  0.33762044  0.94792609     0.15000
H576        H  0.46614064  0.32454232  0.02517648     0.14800
C577        C  0.56264373  0.08351690  0.82841371    -0.18100
C578        C  0.55767455  0.08081638  0.85511713    -0.20300
C579        C  0.51762158  0.04397809  0.86462548     0.20400
C580        C  0.48196407  0.00969996  0.84709559    -0.03200
C581        C  0.48670187  0.01283192  0.82013565    -0.06300
C582        C  0.52744691  0.04967394  0.81080871     0.20600
C583        C  0.45087349  0.97889712  0.80256356     0.18800
C584        C  0.41076495  0.94207861  0.81208077    -0.17800
C585        C  0.40645640  0.93839965  0.83889498    -0.20000
C586        C  0.44194644  0.97184877  0.85654294     0.20300
C587        C  0.43866966  0.96760714  0.88350412    -0.33000
C588        C  0.47427406  0.00151692  0.90093400     0.01000
C589        C  0.51311436  0.04011844  0.89142400    -0.24300
C590        C  0.53224403  0.05210738  0.78403435    -0.28900
C591        C  0.49646581  0.01880115  0.76642826     0.06700
C592        C  0.45583899  0.98235897  0.77579308    -0.27600
H593        H  0.59404677  0.11206200  0.82152835     0.11400
H594        H  0.58538700  0.10723459  0.86837371     0.12500
H595        H  0.38293846  0.91583009  0.79880446     0.11600
H596        H  0.37546313  0.90928208  0.84584012     0.10800
H597        H  0.40874943  0.93777851  0.89098794     0.16200
H598        H  0.54083572  0.06580251  0.90500891     0.12100
H599        H  0.56340107  0.08055978  0.77683032     0.15000
H600        H  0.42818393  0.95651832  0.76224448     0.14800
C601        C  0.69204500  0.24815184  0.04875676    -0.18100
C602        C  0.73618003  0.28750779  0.04772531    -0.20300
C603        C  0.75681582  0.29920654  0.02425471     0.20400
C604        C  0.73276135  0.27146621  0.00148332    -0.03200
C605        C  0.68800244  0.23152401  0.00253576    -0.06300
C606        C  0.66779136  0.21975998  0.02634043     0.20600
C607        C  0.66391711  0.20289794  0.97997964     0.18800
C608        C  0.68461375  0.21512765  0.95645316    -0.17800
C609        C  0.72909548  0.25467124  0.95543561    -0.20000
C610        C  0.75382061  0.28293566  0.97791091     0.20300
C611        C  0.79963409  0.32127945  0.97757209    -0.33000
C612        C  0.82434763  0.34799553  0.00062847     0.01000
C613        C  0.80173172  0.33732687  0.02354673    -0.24300
C614        C  0.62402464  0.17938582  0.02753557    -0.28900
C615        C  0.59983410  0.14983863  0.00533598     0.06700
C616        C  0.61998950  0.16224252  0.98149428    -0.27600
H617        H  0.67707530  0.23960780  0.06718897     0.11400
H618        H  0.75445285  0.30847297  0.06541280     0.12500
H619        H  0.66661483  0.19370342  0.93887553     0.11600
H620        H  0.74439757  0.26274411  0.93712234     0.10800
H621        H  0.81656579  0.32877702  0.95984017     0.16200
H622        H  0.81984716  0.35767448  0.04144326     0.12100
H623        H  0.60911859  0.17062505  0.04599826     0.15000
H624        H  0.60174820  0.14007143  0.96417482     0.14800
C625        C  0.27666480  0.67277295  0.95888188    -0.18100
C626        C  0.31670397  0.71715335  0.95796011    -0.20300
C627        C  0.32944355  0.75203405  0.97730059     0.20400
C628        C  0.30206075  0.74190097  0.99806507    -0.03200
C629        C  0.26152731  0.69694186  0.99901293    -0.06300
C630        C  0.24860583  0.66251903  0.97913154     0.20600
C631        C  0.23322688  0.68700138  0.01932030     0.18800
C632        C  0.24634227  0.72188869  0.03879361    -0.17800
C633        C  0.28670858  0.76636368  0.03794593    -0.20000
C634        C  0.31468455  0.77691758  0.01755303     0.20300
C635        C  0.35478120  0.82184869  0.01614608    -0.33000
C636        C  0.38217883  0.83228458  0.99532963     0.01000
C637        C  0.36897812  0.79692040  0.97604296    -0.24300
C638        C  0.20676819  0.61931638  0.97906368    -0.28900
C639        C  0.17711119  0.60992910  0.99841830     0.06700
C640        C  0.19133812  0.64331061  0.01904390    -0.27600
H641        H  0.26720213  0.64673240  0.94346808     0.11400
H642        H  0.33747785  0.72438082  0.94192702     0.12500
H643        H  0.22502265  0.71502398  0.05450003     0.11600
H644        H  0.29576636  0.79271847  0.05309967     0.10800
H645        H  0.36449209  0.84864145  0.03116301     0.16200
H646        H  0.38965711  0.80413724  0.95995479     0.12100
H647        H  0.19605422  0.59394260  0.96307412     0.15000
H648        H  0.16838683  0.63680059  0.03379822     0.14800
C649        C  0.89643692  0.47747869  0.84087588    -0.18100
C650        C  0.89625659  0.48006758  0.81360547    -0.20300
C651        C  0.92330559  0.46822536  0.80058293     0.20400
C652        C  0.94958334  0.45204236  0.81525852    -0.03200
C653        C  0.94908533  0.44856080  0.84277020    -0.06300
C654        C  0.92321051  0.46241445  0.85569816     0.20600
C655        C  0.97613719  0.43330071  0.85742967     0.18800
C656        C  0.00288139  0.42105869  0.84443216    -0.17800
C657        C  0.00395058  0.42524309  0.81732224    -0.20000
C658        C  0.97790882  0.44125155  0.80261377     0.20300
C659        C  0.98129134  0.44858532  0.77569537    -0.33000
C660        C  0.95640564  0.46609461  0.76096594     0.01000
C661        C  0.92624773  0.47436172  0.77341124    -0.24300
C662        C  0.92632689  0.46311527  0.88322443    -0.28900
C663        C  0.95409976  0.44906123  0.89795608     0.06700
C664        C  0.97782173  0.43288246  0.88488573    -0.27600
H665        H  0.87622413  0.48810896  0.85043189     0.11400
H666        H  0.87587254  0.49258922  0.80276483     0.12500
H667        H  0.02396964  0.40942777  0.85532782     0.11600
H668        H  0.02584735  0.41674983  0.80790373     0.10800
H669        H  0.00460304  0.44214456  0.76628612     0.16200
H670        H  0.90745296  0.48847532  0.76232356     0.12100
H671        H  0.90864723  0.47638339  0.89325521     0.15000
H672        H  0.00012223  0.42314071  0.89617799     0.14800
C673        C  0.74608322  0.72628263  0.95889088    -0.18100
C674        C  0.78807362  0.76849650  0.95660221    -0.20300
C675        C  0.82236865  0.78694716  0.97774397     0.20400
C676        C  0.81438026  0.76210088  0.00130332    -0.03200
C677        C  0.77187631  0.71928534  0.00360079    -0.06300
C678        C  0.73742028  0.70157903  0.98237358     0.20600
C679        C  0.76350898  0.69486179  0.02731486     0.18800
C680        C  0.79833160  0.71258869  0.04818826    -0.17800
C681        C  0.84046076  0.75468013  0.04584820    -0.20000
C682        C  0.84868761  0.78016012  0.02262868     0.20300
C683        C  0.89073820  0.82296581  0.02029045    -0.33000
C684        C  0.89942968  0.84784918  0.99673557     0.01000
C685        C  0.86464592  0.82942631  0.97561139    -0.24300
C686        C  0.69430420  0.66067121  0.98528833    -0.28900
C687        C  0.68444118  0.63754007  0.00938838     0.06700
C688        C  0.71997101  0.65431174  0.03008138    -0.27600
H689        H  0.72009610  0.71328069  0.94235685     0.11400
H690        H  0.79361379  0.78689651  0.93829022     0.12500
H691        H  0.79276116  0.69422226  0.06650976     0.11600
H692        H  0.86649506  0.76758543  0.06235185     0.10800
H693        H  0.91736606  0.83594699  0.03650133     0.16200
H694        H  0.87080630  0.84776257  0.95725684     0.12100
H695        H  0.66748616  0.64867309  0.96920834     0.15000
H696        H  0.71315838  0.63708012  0.04875097     0.14800
C697        C  0.26620002  0.24275278  0.04668139    -0.18100
C698        C  0.30821219  0.28553193  0.04526084    -0.20300
C699        C  0.32253463  0.30584133  0.02102903     0.20400
C700        C  0.29408233  0.28204461  0.99801590    -0.03200
C701        C  0.25187953  0.23827929  0.99942252    -0.06300
C702        C  0.23772312  0.21883664  0.02389402     0.20600
C703        C  0.22378224  0.21419844  0.97636285     0.18800
C704        C  0.23817849  0.23434157  0.95213143    -0.17800
C705        C  0.27962673  0.27764726  0.95075442    -0.20000
C706        C  0.30781585  0.30182259  0.97356234     0.20300
C707        C  0.34976601  0.34497822  0.97220841    -0.33000
C708        C  0.37925643  0.36906874  0.99492758     0.01000
C709        C  0.36493501  0.34899329  0.01937655    -0.24300
C710        C  0.19518210  0.17620976  0.02520825    -0.28900
C711        C  0.16644266  0.15180730  0.00237359     0.06700
C712        C  0.18158040  0.17094351  0.97794361    -0.27600
H713        H  0.25597720  0.22831574  0.06568756     0.11400
H714        H  0.32942394  0.30288327  0.06319012     0.12500
H715        H  0.21724839  0.21668558  0.93418245     0.11600
H716        H  0.28971502  0.29221786  0.93175334     0.10800
H717        H  0.36007154  0.35913216  0.95316106     0.16200
H718        H  0.38734478  0.36604853  0.03702951     0.12100
H719        H  0.18418963  0.16213609  0.04417323     0.15000
H720        H  0.15977693  0.15316367  0.96022747     0.14800
C721        C  0.10793639  0.75502443  0.96747574    -0.18100
C722        C  0.11323214  0.79954216  0.97049032    -0.20300
C723        C  0.09016337  0.80693712  0.98905964     0.20400
C724        C  0.06419435  0.77035222  0.00608365    -0.03200
C725        C  0.05912048  0.72550172  0.00315310    -0.06300
C726        C  0.07977531  0.71753381  0.98312927     0.20600
C727        C  0.03166490  0.68811205  0.01938904     0.18800
C728        C  0.01120520  0.69663582  0.03915750    -0.17800
C729        C  0.01547193  0.74096931  0.04173138    -0.20000
C730        C  0.04082861  0.77762414  0.02481373     0.20300
C731        C  0.04062927  0.82012001  0.02492992    -0.33000
C732        C  0.06313425  0.85458211  0.00635689     0.01000
C733        C  0.08966694  0.84893678  0.98946996    -0.24300
C734        C  0.07108286  0.67196369  0.97864556    -0.28900
C735        C  0.04279502  0.63416089  0.99421091     0.06700
C736        C  0.02418728  0.64266443  0.01504526    -0.27600
H737        H  0.12468702  0.74951876  0.95235324     0.11400
H738        H  0.13372726  0.82756859  0.95753870     0.12500
H739        H  0.99053142  0.66852148  0.05201091     0.11600
H740        H  0.99772403  0.74609451  0.05639157     0.10800
H741        H  0.01985561  0.82460047  0.03780143     0.16200
H742        H  0.10700671  0.87584656  0.97523971     0.12100
H743        H  0.08697673  0.66608218  0.96314839     0.15000
H744        H  0.00325305  0.61382402  0.02747484     0.14800
C745        C  0.92015698  0.16023013  0.02394945    -0.18100
C746        C  0.91755126  0.20074521  0.02643339    -0.20300
C747        C  0.94206745  0.23996829  0.01086390     0.20400
C748        C  0.96714946  0.23746533  0.99147735    -0.03200
C749        C  0.96984520  0.19662612  0.98899594    -0.06300
C750        C  0.94739013  0.15857135  0.00590879     0.20600
C751        C  0.99743794  0.19516772  0.97083123     0.18800
C752        C  0.01956432  0.23331558  0.95415667    -0.17800
C753        C  0.01644169  0.27371110  0.95641824    -0.20000
C754        C  0.99141201  0.27663848  0.97550544     0.20300
C755        C  0.99146338  0.31853259  0.97956169    -0.33000
C756        C  0.96856464  0.32186482  0.99981715     0.01000
C757        C  0.94316720  0.28218833  0.01497093    -0.24300
C758        C  0.95548820  0.12126217  0.00594548    -0.28900
C759        C  0.98650186  0.12204695  0.98977508     0.06700
C760        C  0.00520390  0.15734167  0.97112167    -0.27600
H761        H  0.90243904  0.13101514  0.03687948     0.11400
H762        H  0.89762876  0.20201406  0.04112687     0.12500
H763        H  0.04059659  0.23261302  0.93999882     0.11600
H764        H  0.03489017  0.30330085  0.94384428     0.10800
H765        H  0.01042923  0.34894349  0.96756385     0.16200
H766        H  0.92426005  0.28423133  0.03006118     0.12100
H767        H  0.94056712  0.09345814  0.02006384     0.15000
H768        H  0.02910454  0.15776020  0.95863865     0.14800
C769        C  0.08143859  0.11009711  0.82090878    -0.18100
C770        C  0.07797923  0.10609569  0.84795783    -0.20300
C771        C  0.05486627  0.06130217  0.85931953     0.20400
C772        C  0.03566944  0.02022098  0.84316267    -0.03200
C773        C  0.03965724  0.02424325  0.81596252    -0.06300
C774        C  0.06215384  0.06939227  0.80463678     0.20600
C775        C  0.01973289  0.98291441  0.79999729     0.18800
C776        C  0.99681132  0.93814125  0.81122334    -0.17800
C777        C  0.99277326  0.93418748  0.83801954    -0.20000
C778        C  0.01176747  0.97494283  0.85407937     0.20300
C779        C  0.00710509  0.97091807  0.88086964    -0.33000
C780        C  0.02642879  0.01139851  0.89738475     0.01000
C781        C  0.05043368  0.05669130  0.88643174    -0.24300
C782        C  0.06280870  0.07274245  0.77719151    -0.28900
C783        C  0.04079354  0.03134680  0.76118341     0.06700
C784        C  0.02082568  0.98682844  0.77289888    -0.27600
H785        H  0.09874861  0.14509462  0.81267112     0.11400
H786        H  0.09297151  0.13810148  0.85995912     0.12500
H787        H  0.98124263  0.90610527  0.79918683     0.11600
H788        H  0.97442413  0.89916664  0.84616290     0.10800
H789        H  0.98883998  0.93579950  0.88893120     0.16200
H790        H  0.06554770  0.08814580  0.89891840     0.12100
H791        H  0.07734271  0.10715082  0.76824713     0.15000
H792        H  0.00336205  0.95490804  0.76062723     0.14800
C793        C  0.44934176  0.53457673  0.50383056    -0.18100
C794        C  0.44406433  0.52132512  0.47750855    -0.20300
C795        C  0.46243915  0.49477144  0.46958493     0.20400
C796        C  0.48730558  0.48242472  0.48842117    -0.03200
C797        C  0.49318159  0.49638022  0.51502014    -0.06300
C798        C  0.47343281  0.52189977  0.52277381     0.20600
C799        C  0.51785828  0.48384157  0.53391452     0.18800
C800        C  0.53689048  0.45798193  0.52589019    -0.17800
C801        C  0.53092831  0.44403417  0.49961661    -0.20000
C802        C  0.50585001  0.45568190  0.48076034     0.20300
C803        C  0.49898721  0.44100905  0.45443156    -0.33000
C804        C  0.47425004  0.45311585  0.43538057     0.01000
C805        C  0.45631238  0.48032944  0.44322270    -0.24300
C806        C  0.47684088  0.53296805  0.54940275    -0.28900
C807        C  0.50046078  0.51975763  0.56848165     0.06700
C808        C  0.52175837  0.49603882  0.56052809    -0.27600
H809        H  0.43414538  0.55439649  0.50941743     0.11400
H810        H  0.42509205  0.53139286  0.46337338     0.12500
H811        H  0.55594002  0.44798849  0.54000969     0.11600
H812        H  0.54569023  0.42376217  0.49407253     0.10800
H813        H  0.51367263  0.42075939  0.44869894     0.16200
H814        H  0.43753467  0.49023704  0.42882457     0.12100
H815        H  0.45990652  0.55074031  0.55546784     0.15000
H816        H  0.53913854  0.48487696  0.57515516     0.14800
C817        C  0.60361555  0.50763290  0.16660116    -0.18100
C818        C  0.59731351  0.50212917  0.19327354    -0.20300
C819        C  0.55327553  0.47333694  0.20149315     0.20400
C820        C  0.51515534  0.45020428  0.18248292    -0.03200
C821        C  0.52156788  0.45559414  0.15548121    -0.06300
C822        C  0.56602985  0.48439553  0.14752402     0.20600
C823        C  0.48345015  0.43260336  0.13648384     0.18800
C824        C  0.43922964  0.40514260  0.14469419    -0.17800
C825        C  0.43284572  0.40011111  0.17135569    -0.20000
C826        C  0.47055641  0.42226906  0.19042496     0.20300
C827        C  0.46437516  0.41786622  0.21724357    -0.33000
C828        C  0.50216303  0.44051922  0.23634136     0.01000
C829        C  0.54657181  0.46810819  0.22830529    -0.24300
C830        C  0.57207677  0.49004345  0.12067666    -0.28900
C831        C  0.53433144  0.46698670  0.10145281     0.06700
C832        C  0.49009585  0.43803271  0.10966566    -0.27600
H833        H  0.63800652  0.53017485  0.16088678     0.11400
H834        H  0.62695962  0.52056836  0.20749892     0.12500
H835        H  0.40946941  0.38760638  0.13046380     0.11600
H836        H  0.39830024  0.37883816  0.17706577     0.10800
H837        H  0.42998110  0.39768391  0.22332965     0.16200
H838        H  0.57560379  0.48695104  0.24288452     0.12100
H839        H  0.60626908  0.51290543  0.11472420     0.15000
H840        H  0.46064651  0.42099605  0.09518249     0.14800
C841        C  0.55006016  0.98469285  0.52005267    -0.18100
C842        C  0.54693772  0.97358990  0.49361104    -0.20300
C843        C  0.51098714  0.97002232  0.47611610     0.20400
C844        C  0.47855438  0.97897653  0.48516551    -0.03200
C845        C  0.48127845  0.98941646  0.51192416    -0.06300
C846        C  0.51707904  0.99205153  0.52949442     0.20600
C847        C  0.44753975  0.99607855  0.52117218     0.18800
C848        C  0.41257189  0.99423531  0.50350714    -0.17800
C849        C  0.41048056  0.98496796  0.47690934    -0.20000
C850        C  0.44283879  0.97653742  0.46759239     0.20300
C851        C  0.43956052  0.96473124  0.44115540    -0.33000
C852        C  0.47053920  0.95366091  0.43232505     0.01000
C853        C  0.50643244  0.95688299  0.44983769    -0.24300
C854        C  0.51854480  0.00077971  0.55624965    -0.28900
C855        C  0.48392565  0.00553212  0.56568925     0.06700
C856        C  0.44877569  0.00347527  0.54798464    -0.27600
H857        H  0.57782543  0.98668644  0.53320819     0.11400
H858        H  0.57237637  0.96726301  0.48689482     0.12500
H859        H  0.38658461  0.99959577  0.51030342     0.11600
H860        H  0.38297719  0.98343059  0.46370489     0.10800
H861        H  0.41214645  0.96271809  0.42762979     0.16200
H862        H  0.53105691  0.94946510  0.44291859     0.12100
H863        H  0.54535446  0.00171228  0.56985538     0.15000
H864        H  0.42202024  0.00715883  0.55516227     0.14800
C865        C  0.46557144  0.69440829  0.38102114    -0.18100
C866        C  0.46616122  0.65233962  0.37931335    -0.20300
C867        C  0.47573964  0.63928752  0.35613600     0.20400
C868        C  0.48519077  0.66934429  0.33453582    -0.03200
C869        C  0.48440842  0.71187416  0.33623240    -0.06300
C870        C  0.47442668  0.72435858  0.35957462     0.20600
C871        C  0.49357214  0.74181220  0.31459301     0.18800
C872        C  0.50409493  0.72922289  0.29159079    -0.17800
C873        C  0.50455405  0.68705594  0.28985316    -0.20000
C874        C  0.49471624  0.65658647  0.31111504     0.20300
C875        C  0.49293658  0.61304183  0.30910094    -0.33000
C876        C  0.48206072  0.58189974  0.33026685     0.01000
C877        C  0.47465939  0.59611201  0.35396048    -0.24300
C878        C  0.47408591  0.76681039  0.36123436    -0.28900
C879        C  0.48336017  0.79728624  0.33982591     0.06700
C880        C  0.49270046  0.78403858  0.31644996    -0.27600
H881        H  0.45800741  0.70344926  0.39915720     0.11400
H882        H  0.45876153  0.62978707  0.39611496     0.12500
H883        H  0.51169248  0.75187412  0.27482742     0.11600
H884        H  0.51222047  0.67805735  0.27173819     0.10800
H885        H  0.49860805  0.60268587  0.29072658     0.16200
H886        H  0.46557325  0.57239619  0.37030221     0.12100
H887        H  0.46739543  0.77658615  0.37945370     0.15000
H888        H  0.50101989  0.80747394  0.29999886     0.14800
C889        C  0.47254642  0.21503214  0.28865748    -0.18100
C890        C  0.47146321  0.17216800  0.28618304    -0.20300
C891        C  0.46850467  0.14458207  0.30811713     0.20400
C892        C  0.46648343  0.16044811  0.33279701    -0.03200
C893        C  0.46705953  0.20361864  0.33525235    -0.06300
C894        C  0.47048665  0.23125210  0.31310649     0.20600
C895        C  0.46490587  0.21942519  0.35991057     0.18800
C896        C  0.46151750  0.19161467  0.38181147    -0.17800
C897        C  0.46117409  0.14912012  0.37940958    -0.20000
C898        C  0.46386243  0.13321806  0.35501645     0.20300
C899        C  0.46303453  0.09019630  0.35239229    -0.33000
C900        C  0.46359770  0.07317920  0.32768716     0.01000
C901        C  0.46674910  0.10110975  0.30570162    -0.24300
C902        C  0.47339420  0.27529132  0.31589677    -0.28900
C903        C  0.47357981  0.29268451  0.34066051     0.06700
C904        C  0.46784824  0.26348121  0.36242388    -0.27600
H905        H  0.47528024  0.23568180  0.27140731     0.11400
H906        H  0.47305753  0.16063202  0.26704928     0.12500
H907        H  0.45970937  0.20304370  0.40092599     0.11600
H908        H  0.45880808  0.12865666  0.39669418     0.10800
H909        H  0.45993751  0.06895433  0.36943769     0.16200
H910        H  0.46710616  0.08860422  0.28655330     0.12100
H911        H  0.47790399  0.29708906  0.29894737     0.15000
H912        H  0.46764606  0.27593164  0.38161826     0.14800
C913        C  0.47721958  0.88562495  0.14952711    -0.18100
C914        C  0.47774041  0.87969655  0.17664890    -0.20300
C915        C  0.49236008  0.91847310  0.19370742     0.20400
C916        C  0.50744856  0.96383089  0.18324967    -0.03200
C917        C  0.50695525  0.96978181  0.15598226    -0.06300
C918        C  0.49135186  0.93045039  0.13895237     0.20600
C919        C  0.52101449  0.01500166  0.14577951     0.18800
C920        C  0.53591728  0.05390417  0.16269088    -0.17800
C921        C  0.53614564  0.04798746  0.18960588    -0.20000
C922        C  0.52161872  0.00311906  0.19998769     0.20300
C923        C  0.51911360  0.99664538  0.22677267    -0.33000
C924        C  0.50221546  0.95145009  0.23728100     0.01000
C925        C  0.49025254  0.91256720  0.22087396    -0.24300
C926        C  0.48938578  0.93663913  0.11172726    -0.28900
C927        C  0.50288262  0.98173616  0.10150871     0.06700
C928        C  0.51911188  0.02062838  0.11880678    -0.27600
H929        H  0.46518559  0.85500131  0.13680302     0.11400
H930        H  0.46595231  0.84460906  0.18425641     0.12500
H931        H  0.54675216  0.08881333  0.15507314     0.11600
H932        H  0.54697782  0.07837770  0.20229052     0.10800
H933        H  0.52834106  0.02661556  0.23945961     0.16200
H934        H  0.47658101  0.87753779  0.22896848     0.12100
H935        H  0.47679340  0.90641083  0.09858371     0.15000
H936        H  0.52959861  0.05555581  0.11130663     0.14800
C937        C  0.06854940  0.51500946  0.52403660    -0.18100
C938        C  0.06673022  0.50652346  0.49727014    -0.20300
C939        C  0.03964466  0.51636306  0.47884251     0.20400
C940        C  0.01435193  0.53517862  0.48750392    -0.03200
C941        C  0.01593450  0.54343915  0.51459035    -0.06300
C942        C  0.04312118  0.53327182  0.53299119     0.20600
C943        C  0.98976078  0.56122549  0.52324297     0.18800
C944        C  0.96295489  0.57137352  0.50484742    -0.17800
C945        C  0.96187450  0.56380198  0.47808593    -0.20000
C946        C  0.98731726  0.54559272  0.46913172     0.20300
C947        C  0.98628961  0.53782175  0.44217952    -0.33000
C948        C  0.01135062  0.51894440  0.43326968     0.01000
C949        C  0.03764020  0.50798616  0.45193108    -0.24300
C950        C  0.04326509  0.54019221  0.55996910    -0.28900
C951        C  0.01571747  0.55615900  0.56877011     0.06700
C952        C  0.98976665  0.56733596  0.55013996    -0.27600
H953        H  0.08955036  0.50684955  0.53776377     0.11400
H954        H  0.08654303  0.49218734  0.49097422     0.12500
H955        H  0.94259133  0.58502143  0.51117573     0.11600
H956        H  0.94088534  0.57198685  0.46437338     0.10800
H957        H  0.96590084  0.54633369  0.42816553     0.16200
H958        H  0.05745662  0.49375936  0.44547396     0.12100
H959        H  0.06278819  0.53074498  0.57409253     0.18600
H960        H  0.96832311  0.57952266  0.55665196     0.14800
C961        C  0.71050507  0.45604445  0.28756745    -0.18100
C962        C  0.75310512  0.46069466  0.28565140    -0.20300
C963        C  0.78471339  0.47228500  0.30785376     0.20400
C964        C  0.77367849  0.47996839  0.33214589    -0.03200
C965        C  0.73065321  0.47506753  0.33409852    -0.06300
C966        C  0.69877857  0.46270190  0.31173243     0.20600
C967        C  0.71932873  0.48189264  0.35850067     0.18800
C968        C  0.75146022  0.49499266  0.38053084    -0.17800
C969        C  0.79428857  0.50031042  0.37853613    -0.20000
C970        C  0.80549247  0.49226108  0.35452756     0.20300
C971        C  0.84802687  0.49654153  0.35250157    -0.33000
C972        C  0.85930581  0.48891590  0.32835533     0.01000
C973        C  0.82729085  0.47663872  0.30614201    -0.24300
C974        C  0.65540876  0.45616461  0.31404865    -0.28900
C975        C  0.64330327  0.46095412  0.33854040     0.06700
C976        C  0.67576230  0.47464515  0.36056821    -0.27600
H977        H  0.68652894  0.44671065  0.27020641     0.11400
H978        H  0.76125942  0.45501690  0.26681033     0.12500
H979        H  0.74330719  0.50071579  0.39936457     0.11600
H980        H  0.81847264  0.51023662  0.39583529     0.10800
H981        H  0.87273575  0.50690179  0.36959385     0.16200
H982        H  0.83569223  0.47099652  0.28735786     0.12100
H983        H  0.63058812  0.44572098  0.29700099     0.15000
H984        H  0.66694352  0.47912301  0.37948517     0.14800
C985        C  0.30880048  0.51261150  0.37756867    -0.18100
C986        C  0.28274830  0.53418931  0.37693852    -0.20300
C987        C  0.25007838  0.52565990  0.35573163     0.20400
C988        C  0.24429431  0.49600127  0.33467376    -0.03200
C989        C  0.26995011  0.47366265  0.33550689    -0.06300
C990        C  0.30228895  0.48197084  0.35708848     0.20600
C991        C  0.26356884  0.44341274  0.31461866     0.18800
C992        C  0.23162123  0.43564031  0.29316494    -0.17800
C993        C  0.20600363  0.45764172  0.29239474    -0.20000
C994        C  0.21197130  0.48762885  0.31308742     0.20300
C995        C  0.18402670  0.50685048  0.31332316    -0.33000
C996        C  0.18634257  0.53221825  0.33542194     0.01000
C997        C  0.22103034  0.54371480  0.35594758    -0.24300
C998        C  0.32926021  0.46150080  0.35714096    -0.28900
C999        C  0.32537617  0.43437827  0.33546517     0.06700
C1000       C  0.29100393  0.42350531  0.31489358    -0.27600
H1001       H  0.33397519  0.51981091  0.39408577     0.11400
H1002       H  0.28770517  0.55702858  0.39319013     0.12500
H1003       H  0.22660906  0.41272854  0.27693420     0.11600
H1004       H  0.18108139  0.45070893  0.27577966     0.10800
H1005       H  0.15703539  0.49747014  0.29754922     0.16200
H1006       H  0.22286345  0.56333548  0.37300835     0.12100
H1007       H  0.35635679  0.47065013  0.37282222     0.15000
H1008       H  0.28825952  0.40277853  0.29810347     0.14800
C1009       C  0.06331853  0.59061188  0.14735379    -0.18100
C1010       C  0.06333736  0.59470649  0.17439061    -0.20300
C1011       C  0.06002992  0.55864959  0.19102544     0.20400
C1012       C  0.05776883  0.51854780  0.18033942    -0.03200
C1013       C  0.05722686  0.51415933  0.15293097    -0.06300
C1014       C  0.05963196  0.55019712  0.13631079     0.20600
C1015       C  0.05282900  0.47306240  0.14212444     0.18800
C1016       C  0.05062415  0.43751228  0.15882009    -0.17800
C1017       C  0.05170526  0.44210605  0.18592103    -0.20000
C1018       C  0.05467058  0.48219281  0.19692356     0.20300
C1019       C  0.05308486  0.48583951  0.22403062    -0.33000
C1020       C  0.05330817  0.52482782  0.23473133     0.01000
C1021       C  0.05757344  0.56140210  0.21800505    -0.24300
C1022       C  0.05657084  0.54440962  0.10895436    -0.28900
C1023       C  0.04993010  0.50243747  0.09791059     0.06700
C1024       C  0.04910612  0.46744773  0.11480912    -0.27600
H1025       H  0.06523748  0.61869560  0.13500915     0.11400
H1026       H  0.06528244  0.62587450  0.18226279     0.12500
H1027       H  0.04736783  0.40572866  0.15087325     0.11600
H1028       H  0.04930753  0.41379787  0.19824175     0.10800
H1029       H  0.04951584  0.45731564  0.23657773     0.16200
H1030       H  0.05803566  0.59174889  0.22593175     0.12100
H1031       H  0.05691443  0.57142812  0.09625597     0.15000
H1032       H  0.04420643  0.43502059  0.10664739     0.14800
C1033       C  0.91006670  0.93928290  0.48044902    -0.18100
C1034       C  0.90642387  0.94331874  0.50711503    -0.20300
C1035       C  0.93266174  0.98731928  0.52060272     0.20400
C1036       C  0.96130716  0.02792455  0.50651465    -0.03200
C1037       C  0.96438675  0.02398891  0.47943877    -0.06300
C1038       C  0.93966141  0.97923347  0.46650633     0.20600
C1039       C  0.99371261  0.06461279  0.46560876     0.18800
C1040       C  0.01917509  0.10876117  0.47884912    -0.17800
C1041       C  0.01684852  0.11246686  0.50561656    -0.20000
C1042       C  0.98848268  0.07222843  0.51969162     0.20300
C1043       C  0.98857095  0.07534496  0.54689929    -0.33000
C1044       C  0.96176568  0.03495798  0.56155582     0.01000
C1045       C  0.93260049  0.99112949  0.54802748    -0.24300
C1046       C  0.94638430  0.97508705  0.44025252    -0.28900
C1047       C  0.97637634  0.01540790  0.42646698     0.06700
C1048       C  0.99866054  0.06019720  0.43913339    -0.27600
H1049       H  0.89034873  0.90462873  0.47084678     0.11400
H1050       H  0.88401294  0.91167192  0.51737351     0.12500
H1051       H  0.04192629  0.14033136  0.46864373     0.11600
H1052       H  0.03794371  0.14681852  0.51543423     0.10800
H1053       H  0.01131063  0.10923270  0.55696783     0.16200
H1054       H  0.91242023  0.95958864  0.55899117     0.12100
H1055       H  0.92900184  0.94041138  0.43067148     0.15000
H1056       H  0.02212511  0.09129430  0.42883263     0.14800
C1057       C  0.00382923  0.72472860  0.37870005    -0.18100
C1058       C  0.00054684  0.76520399  0.38057588    -0.20300
C1059       C  0.00487241  0.79338170  0.35873184     0.20400
C1060       C  0.01306511  0.78078126  0.33481812    -0.03200
C1061       C  0.01620421  0.73972197  0.33289151    -0.06300
C1062       C  0.01135733  0.71142107  0.35491500     0.20600
C1063       C  0.02359289  0.72670950  0.30885156     0.18800
C1064       C  0.02909677  0.75551255  0.28717047    -0.17800
C1065       C  0.02673811  0.79648988  0.28918884    -0.20000
C1066       C  0.01822910  0.80921540  0.31284084     0.20300
C1067       C  0.01560437  0.85026281  0.31497661    -0.33000
C1068       C  0.00792446  0.86366478  0.33885805     0.01000
C1069       C  0.00209726  0.83439892  0.36056014    -0.24300
C1070       C  0.01278715  0.66967126  0.35259948    -0.28900
C1071       C  0.01804922  0.65517249  0.32836832     0.06700
C1072       C  0.02424447  0.68459403  0.30672079    -0.27600
H1073       H  0.00004917  0.70355585  0.39584439     0.11400
H1074       H  0.99458289  0.77446465  0.39917169     0.12500
H1075       H  0.03502940  0.74622345  0.26856985     0.11600
H1076       H  0.03123123  0.81806773  0.27214969     0.10800
H1077       H  0.02132791  0.87275045  0.29822870     0.16200
H1078       H  0.99701909  0.84441830  0.37921305     0.12100
H1079       H  0.00740428  0.64723516  0.36934435     0.15000
H1080       H  0.02829694  0.67401768  0.28792667     0.14800
C1081       C  0.03791869  0.24156618  0.37449473    -0.18100
C1082       C  0.04103159  0.28520933  0.37789741    -0.20300
C1083       C  0.03463027  0.30911851  0.35636606     0.20400
C1084       C  0.02489605  0.28871672  0.33112770    -0.03200
C1085       C  0.02192396  0.24452816  0.32766803    -0.06300
C1086       C  0.02857975  0.22091253  0.34946655     0.20600
C1087       C  0.01216813  0.22396709  0.30246495     0.18800
C1088       C  0.00536238  0.24778920  0.28095241    -0.17800
C1089       C  0.00854412  0.29157844  0.28435849    -0.20000
C1090       C  0.01835112  0.31250433  0.30937451     0.20300
C1091       C  0.02220857  0.35687590  0.31299431    -0.33000
C1092       C  0.03247906  0.37793181  0.33817650     0.01000
C1093       C  0.03827153  0.35322852  0.35970797    -0.24300
C1094       C  0.02540633  0.17693316  0.34598093    -0.28900
C1095       C  0.01552933  0.15566737  0.32092369     0.06700
C1096       C  0.00899147  0.17985649  0.29925254    -0.27600
H1097       H  0.04293957  0.22397646  0.39150418     0.11400
H1098       H  0.04852799  0.30032226  0.39744775     0.12500
H1099       H  0.99766067  0.23258314  0.26141472     0.11600
H1100       H  0.00336134  0.30911832  0.26736941     0.10800
H1101       H  0.01811741  0.37538006  0.29614865     0.16200
H1102       H  0.04657521  0.36874548  0.37921146     0.12100
H1103       H  0.02966790  0.15876604  0.36294122     0.15000
H1104       H  0.00062178  0.16400257  0.27983557     0.14800
C1105       C  0.75369992  0.98247336  0.27841445    -0.18100
C1106       C  0.71088697  0.97670573  0.28116864    -0.20300
C1107       C  0.69638358  0.97350830  0.30608806     0.20400
C1108       C  0.72542121  0.97645497  0.32842299    -0.03200
C1109       C  0.76842059  0.98232823  0.32566447    -0.06300
C1110       C  0.78254534  0.98516348  0.30054060     0.20600
C1111       C  0.79725894  0.98537097  0.34809389     0.18800
C1112       C  0.78311941  0.98259978  0.37300640    -0.17800
C1113       C  0.74037161  0.97649439  0.37573580    -0.20000
C1114       C  0.71146739  0.97336134  0.35358850     0.20300
C1115       C  0.66864737  0.96683853  0.35630625    -0.33000
C1116       C  0.63909169  0.96316620  0.33428273     0.01000
C1117       C  0.65324688  0.96694498  0.30915419    -0.24300
C1118       C  0.82538483  0.99091234  0.29804207    -0.28900
C1119       C  0.85423170  0.99417995  0.32037613     0.06700
C1120       C  0.83988350  0.99129336  0.34529696    -0.27600
H1121       H  0.76423560  0.98478995  0.25899977     0.11400
H1122       H  0.68907794  0.97458262  0.26383186     0.12500
H1123       H  0.80505175  0.98501903  0.39035607     0.11600
H1124       H  0.72988092  0.97417362  0.39516339     0.10800
H1125       H  0.65823755  0.96412311  0.37579609     0.16200
H1126       H  0.63053013  0.96393098  0.29206943     0.12100
H1127       H  0.83640869  0.99342211  0.27873749     0.15000
H1128       H  0.86195539  0.99390428  0.36263711     0.14800
C1129       C  0.23142198  0.93818814  0.28859846    -0.18100
C1130       C  0.20354095  0.95706860  0.29046571    -0.20300
C1131       C  0.19670169  0.96831065  0.31497863     0.20400
C1132       C  0.21774381  0.96004095  0.33787147    -0.03200
C1133       C  0.24633995  0.94155408  0.33597659    -0.06300
C1134       C  0.25322906  0.93079450  0.31120833     0.20600
C1135       C  0.26915776  0.93529167  0.35876213     0.18800
C1136       C  0.26138271  0.94547624  0.38331318    -0.17800
C1137       C  0.23197528  0.96263714  0.38523224    -0.20000
C1138       C  0.21058378  0.97066201  0.36261438     0.20300
C1139       C  0.18164282  0.98848590  0.36429944    -0.33000
C1140       C  0.15987537  0.99603067  0.34155354     0.01000
C1141       C  0.16839990  0.98675680  0.31696218    -0.24300
C1142       C  0.28401670  0.91561154  0.30929651    -0.28900
C1143       C  0.31051340  0.91404716  0.33163909     0.06700
C1144       C  0.30130955  0.92167187  0.35646130    -0.27600
H1145       H  0.23674175  0.93034461  0.26943510     0.11400
H1146       H  0.18741662  0.96298481  0.27273784     0.12500
H1147       H  0.27850372  0.94077223  0.40100069     0.11600
H1148       H  0.22651084  0.97032218  0.40439164     0.10800
H1149       H  0.17493387  0.99502551  0.38338983     0.16200
H1150       H  0.15112761  0.99149504  0.29933737     0.12100
H1151       H  0.29035822  0.90939234  0.29002940     0.15000
H1152       H  0.32137159  0.92037376  0.37381319     0.14800
C1153       C  0.01837956  0.91533717  0.15498034    -0.18100
C1154       C  0.01584269  0.91791813  0.18193745    -0.20300
C1155       C  0.03354253  0.96194929  0.19483452     0.20400
C1156       C  0.05466672  0.00375386  0.18031386    -0.03200
C1157       C  0.05767597  0.00116405  0.15318677    -0.06300
C1158       C  0.03883926  0.95672209  0.14027829     0.20600
C1159       C  0.07867792  0.04314323  0.13890859     0.18800
C1160       C  0.09684792  0.08720945  0.15166879    -0.17800
C1161       C  0.09330384  0.08971638  0.17829786    -0.20000
C1162       C  0.07197882  0.04825172  0.19275439     0.20300
C1163       C  0.06698545  0.05068087  0.21930685    -0.33000
C1164       C  0.04588817  0.00945906  0.23409095     0.01000
C1165       C  0.02977820  0.96505986  0.22177434    -0.24300
C1166       C  0.03977617  0.95457673  0.11290743    -0.28900
C1167       C  0.05978667  0.99653000  0.09846790     0.06700
C1168       C  0.08010460  0.04055427  0.11196152    -0.27600
H1169       H  0.00385732  0.88085290  0.14557545     0.11400
H1170       H  0.99945071  0.88533196  0.19264529     0.12500
H1171       H  0.11312677  0.11979459  0.14093445     0.11600
H1172       H  0.10693988  0.12416137  0.18755710     0.10800
H1173       H  0.07932527  0.08490170  0.22853660     0.16200
H1174       H  0.01276324  0.93297607  0.23286466     0.12100
H1175       H  0.02425337  0.92049154  0.10286067     0.15000
H1176       H  0.09573479  0.07330038  0.10131495     0.14800
loop_ 
_geom_bond_atom_site_label_1 
_geom_bond_atom_site_label_2 
_geom_bond_distance 
_geom_bond_site_symmetry_2 
_ccdc_geom_bond_type 
O1           Ni7   1.949       .  S
O1           C22   1.274   1_465  A
O2          Ni25   1.942   1_565  S
O2           C11   1.275   1_565  A
O3           Ni7   1.909   1_545  S
O3          Ni25   1.920       .  S
O3          Ni19   1.902   1_455  S
O3           H26   0.967       .  S
C4           O21   1.276       .  A
C4           O13   1.277       .  A
C4         C1119   1.464   1_545  S
O5          Ni24   1.929   1_455  S
O5           C11   1.274       .  A
O6          Ni24   1.925       .  S
O6            C8   1.273   1_655  A
Ni7          O10   1.921       .  S
Ni7          O12   1.915       .  S
C8           O18   1.280       .  A
C8         C1095   1.509       .  S
O9          Ni25   1.907       .  S
O9           C15   1.280       .  A
O10          C15   1.279   1_565  A
C11        C1164   1.494       .  S
O12          C14   1.272       .  A
O13         Ni24   1.910       .  S
C14          O20   1.277       .  A
C14        C1068   1.500       .  S
C15        C1140   1.474   1_545  S
H16          O17   0.967       .  S
O17         Ni25   1.903   1_665  S
O17         Ni19   1.905   1_565  S
O17         Ni24   1.901   1_565  S
O18         Ni19   1.951   1_455  S
Ni19         O23   1.932       .  S
Ni19         O21   1.899       .  S
O20         Ni25   1.944   1_565  S
C22          O23   1.273       .  A
C22        C1047   1.497       .  S
O27         Ni33   1.921       .  S
O27          C48   1.270       .  A
O28         Ni51   1.935       .  S
O28          C37   1.273       .  A
O29         Ni33   1.905       .  S
O29         Ni51   1.915       .  S
O29         Ni45   1.921   1_455  S
O29          H52   0.966       .  S
C30          O47   1.283       .  A
C30          O39   1.278       .  A
C30         C972   1.480       .  S
O31         Ni50   1.933   1_455  S
O31          C37   1.271       .  A
O32         Ni50   1.908       .  S
O32          C34   1.270   1_655  A
Ni33         O36   1.915       .  S
Ni33         O38   1.916       .  S
C34          O44   1.278       .  A
C34        C1071   1.496       .  S
O35         Ni51   1.907       .  S
O35          C41   1.276       .  A
O36          C41   1.276       .  A
C37        C1020   1.498       .  S
O38          C40   1.272       .  A
O39         Ni50   1.915       .  S
C40          O46   1.278       .  A
C40        C1092   1.504       .  S
C41         C996   1.467       .  S
H42          O43   0.966       .  S
O43         Ni51   1.908   1_655  S
O43         Ni45   1.916       .  S
O43         Ni50   1.900       .  S
O44         Ni45   1.947   1_455  S
Ni45         O49   1.945       .  S
Ni45         O47   1.928       .  S
O46         Ni51   1.949       .  S
C48          O49   1.278   1_455  A
C48         C948   1.500       .  S
O53         Ni59   1.917       .  S
O53          C74   1.271       .  A
O54         Ni77   1.922       .  S
O54          C63   1.269       .  A
O55         Ni59   1.895       .  S
O55         Ni77   1.906       .  S
O55         Ni71   1.916       .  S
O55          H78   0.966       .  S
C56          O73   1.281       .  A
C56          O65   1.278       .  A
C56        C1143   1.476       .  S
O57         Ni76   1.913       .  S
O57          C63   1.268       .  A
O58         Ni76   1.919   1_545  S
O58          C60   1.269       .  A
Ni59         O62   1.907       .  S
Ni59         O64   1.916       .  S
C60          O70   1.276       .  A
C60         C900   1.502       .  S
O61         Ni77   1.909       .  S
O61          C67   1.275       .  A
O62          C67   1.276       .  A
C63         C924   1.470       .  S
O64          C66   1.272       .  A
O65         Ni76   1.904       .  S
C66          O72   1.280       .  A
C66         C879   1.502       .  S
C67        C1116   1.470       .  S
H68          O69   0.967       .  S
O69         Ni77   1.909       .  S
O69         Ni71   1.901       .  S
O69         Ni76   1.891       .  S
O70         Ni71   1.948   1_545  S
Ni71         O75   1.912       .  S
Ni71         O73   1.925       .  S
O72         Ni77   1.954       .  S
C74          O75   1.269       .  A
C74         C852   1.476       .  S
O79         Ni85   1.924       .  S
O79         C100   1.270       .  A
O80        Ni103   1.939       .  S
O80          C89   1.275       .  A
O81         Ni85   1.909       .  S
O81        Ni103   1.916       .  S
O81         Ni97   1.907       .  S
O81         H104   0.966       .  S
C82          O99   1.273       .  A
C82          O91   1.274       .  A
C82         C999   1.462       .  S
O83        Ni102   1.924       .  S
O83          C89   1.268       .  A
O84        Ni102   1.916       .  S
O84          C86   1.271       .  A
Ni85         O88   1.912       .  S
Ni85         O90   1.919       .  S
C86          O96   1.278       .  A
C86         C876   1.500       .  S
O87        Ni103   1.916       .  S
O87          C93   1.278       .  A
O88          C93   1.276       .  A
C89         C828   1.486       .  S
O90          C92   1.272       .  A
O91        Ni102   1.909       .  S
C92          O98   1.280       .  A
C92         C903   1.506       .  S
C93         C975   1.474       .  S
H94          O95   0.966       .  S
O95        Ni103   1.916       .  S
O95         Ni97   1.924       .  S
O95        Ni102   1.911       .  S
O96         Ni97   1.948       .  S
Ni97        O101   1.931       .  S
Ni97         O99   1.903       .  S
O98        Ni103   1.954       .  S
C100        O101   1.271       .  A
C100        C804   1.497       .  S
O105       Ni111   1.909       .  S
O105        C126   1.267   1_545  A
O106       Ni129   1.928       .  S
O106        C115   1.271       .  A
O107       Ni111   1.882       .  S
O107       Ni129   1.903   1_554  S
O107       Ni123   1.913   1_545  S
O107        H130   0.966   1_445  S
C108        O125   1.276       .  A
C108        O117   1.280   1_554  A
C108        C732   1.461       .  S
O109       Ni128   1.923   1_655  S
O109        C115   1.271   1_665  A
O110       Ni128   1.910   1_655  S
O110        C112   1.268       .  A
Ni111       O114   1.904       .  S
Ni111       O116   1.913       .  S
C112        O122   1.280   1_556  A
C112        C684   1.501       .  S
O113       Ni129   1.929       .  S
O113        C119   1.282       .  A
O114        C119   1.279   1_554  A
C115        C780   1.491       .  S
O116        C118   1.268       .  A
O117       Ni128   1.922       .  S
C118        O124   1.279   1_554  A
C118        C711   1.505       .  S
C119        C759   1.464   1_455  S
H120        O121   0.967       .  S
O121       Ni129   1.918   1_565  S
O121       Ni123   1.919   1_556  S
O121       Ni128   1.896       .  S
O122       Ni123   1.961   1_655  S
Ni123       O127   1.947       .  S
Ni123       O125   1.911       .  S
O124       Ni129   1.959       .  S
C126        O127   1.276       .  A
C126       C1167   1.495       .  S
O131       Ni137   1.929   1_655  S
O131        C152   1.270       .  A
O132       Ni155   1.941       .  S
O132        C141   1.275       .  A
O133       Ni137   1.894       .  S
O133       Ni155   1.914   1_556  S
O133       Ni149   1.928   1_455  S
O133        H156   0.964       .  S
C134        O151   1.288   1_554  A
C134        O143   1.278       .  A
C134        C612   1.494       .  S
O135       Ni154   1.925   1_455  S
O135        C141   1.270       .  A
O136       Ni154   1.901       .  S
O136        C138   1.269       .  A
Ni137       O140   1.921       .  S
Ni137       O142   1.900       .  S
C138        O148   1.268   1_554  A
C138        C756   1.468   1_554  S
O139       Ni155   1.935       .  S
O139        C145   1.282   1_554  A
O140        C145   1.279       .  A
C141       C1023   1.497       .  S
O142        C144   1.270       .  A
O143       Ni154   1.906       .  S
C144        O150   1.272   1_556  A
C144        C735   1.472       .  S
C145        C639   1.485       .  S
H146        O147   0.960       .  S
O147       Ni155   1.916   1_655  S
O147       Ni149   1.911   1_554  S
O147       Ni154   1.891       .  S
O148       Ni149   1.913       .  S
Ni149       O153   1.936       .  S
Ni149       O151   1.956       .  S
O150       Ni155   1.920       .  S
C152        O153   1.273       .  A
C152        C663   1.483       .  S
O157       Ni163   1.924       .  S
O157        C178   1.272   1_545  A
O158       Ni181   1.903       .  S
O158        C167   1.265   1_545  A
O159       Ni163   1.891       .  S
O159       Ni181   1.907   1_554  S
O159       Ni175   1.903   1_545  S
O159        H182   0.966   1_545  S
C160        O177   1.278       .  A
C160        O169   1.276   1_554  A
C160        C543   1.461       .  S
O161       Ni180   1.921       .  S
O161        C167   1.267       .  A
O162       Ni180   1.910       .  S
O162        C164   1.270       .  A
Ni163       O166   1.913       .  S
Ni163       O168   1.913       .  S
C164        O174   1.272   1_556  A
C164        C636   1.491       .  S
O165       Ni181   1.902       .  S
O165        C171   1.272       .  A
O166        C171   1.278   1_554  A
C167        C588   1.464   1_565  S
O168        C170   1.270       .  A
O169       Ni180   1.903       .  S
C170        O176   1.272   1_554  A
C170        C615   1.494       .  S
C171        C564   1.466       .  S
H172        O173   0.966   1_545  S
O173       Ni181   1.894   1_565  S
O173       Ni175   1.897   1_556  S
O173       Ni180   1.889       .  S
O174       Ni175   1.933       .  S
Ni175       O179   1.916       .  S
Ni175       O177   1.911       .  S
O176       Ni181   1.935       .  S
C178        O179   1.269       .  A
C178        C927   1.484       .  S
O183       Ni189   1.922       .  S
O183        C204   1.271       .  A
O184       Ni207   1.949       .  S
O184        C193   1.276       .  A
O185       Ni189   1.901       .  S
O185       Ni207   1.912   1_554  S
O185       Ni201   1.915       .  S
O185        H208   0.966       .  S
C186        O203   1.285   1_556  A
C186        O195   1.277       .  A
C186        C567   1.463       .  S
O187       Ni206   1.919       .  S
O187        C193   1.269       .  A
O188       Ni206   1.913       .  S
O188        C190   1.271       .  A
Ni189       O192   1.914       .  S
Ni189       O194   1.921       .  S
C190        O200   1.283   1_556  A
C190        C708   1.510       .  S
O191       Ni207   1.901       .  S
O191        C197   1.277   1_556  A
O192        C197   1.278       .  A
C193        C516   1.499       .  S
O194        C196   1.273       .  A
O195       Ni206   1.897       .  S
C196        O202   1.277   1_554  A
C196        C687   1.501       .  S
C197        C540   1.452       .  S
H198        O199   0.967       .  S
O199       Ni207   1.903       .  S
O199       Ni201   1.908   1_556  S
O199       Ni206   1.879       .  S
O200       Ni201   1.960       .  S
Ni201       O205   1.943       .  S
Ni201       O203   1.921       .  S
O202       Ni207   1.943       .  S
C204        O205   1.278       .  A
C204        C831   1.499       .  S
O209       Ni215   1.919       .  S
O209        C230   1.270   1_455  A
O210       Ni233   1.942       .  S
O210        C219   1.275       .  A
O211       Ni215   1.884       .  S
O211       Ni233   1.912       .  S
O211       Ni227   1.948   1_455  S
O211        H234   0.966   1_445  S
C212        O229   1.297       .  A
C212        O221   1.280       .  A
C212        C468   1.517       .  S
O213       Ni232   1.919       .  S
O213        C219   1.269   1_655  A
O214       Ni232   1.898   1_565  S
O214        C216   1.269       .  A
Ni215       O218   1.923       .  S
Ni215       O220   1.902       .  S
C216        O226   1.280       .  A
C216        C423   1.503       .  S
O217       Ni233   1.978       .  S
O217        C223   1.292       .  A
O218        C223   1.282       .  A
C219        C783   1.482       .  S
O220        C222   1.269       .  A
O221       Ni232   1.922       .  S
C222        O228   1.277       .  A
C222        C444   1.499       .  S
C223        C492   1.518       .  S
H224        O225   0.966   1_455  S
O225       Ni233   1.945   1_655  S
O225       Ni227   1.919       .  S
O225       Ni232   1.883       .  S
O226       Ni227   1.958   1_565  S
Ni227       O231   1.964       .  S
Ni227       O229   1.987       .  S
O228       Ni233   1.950       .  S
C230        O231   1.283       .  A
C230       C1044   1.503       .  S
O235       Ni241   1.926       .  S
O235        C256   1.269   1_455  A
O236       Ni259   1.941       .  S
O236        C245   1.273       .  A
O237       Ni241   1.893       .  S
O237       Ni259   1.909       .  S
O237       Ni253   1.900   1_455  S
O237        H260   0.966   1_455  S
C238        O255   1.276       .  A
C238        O247   1.278       .  A
C238        C327   1.443       .  S
O239       Ni258   1.916       .  S
O239        C245   1.266   1_655  A
O240       Ni258   1.912       .  S
O240        C242   1.269       .  A
Ni241       O244   1.911       .  S
Ni241       O246   1.916       .  S
C242        O252   1.277       .  A
C242        C372   1.498       .  S
O243       Ni259   1.892       .  S
O243        C249   1.276       .  A
O244        C249   1.278       .  A
C245        C951   1.492       .  S
O246        C248   1.270       .  A
O247       Ni258   1.906       .  S
C248        O254   1.280       .  A
C248        C399   1.502       .  S
C249        C348   1.448       .  S
H250        O251   0.967       .  S
O251       Ni259   1.895   1_655  S
O251       Ni253   1.907       .  S
O251       Ni258   1.898       .  S
O252       Ni253   1.947       .  S
Ni253       O257   1.939       .  S
Ni253       O255   1.892       .  S
O254       Ni259   1.951       .  S
C256        O257   1.274       .  A
C256        C660   1.490       .  S
O261       Ni267   1.927       .  S
O261        C282   1.272       .  A
O262       Ni285   1.920       .  S
O262        C271   1.271       .  A
O263       Ni267   1.889       .  S
O263       Ni285   1.905       .  S
O263       Ni279   1.884   1_545  S
O263        H286   0.966       .  S
C264        O281   1.267       .  A
C264        O273   1.278       .  A
C264        C351   1.448       .  S
O265       Ni284   1.926       .  S
O265        C271   1.271   1_565  A
O266       Ni284   1.921       .  S
O266        C268   1.272       .  A
Ni267       O270   1.895       .  S
Ni267       O272   1.929       .  S
C268        O278   1.277       .  A
C268        C495   1.517       .  S
O269       Ni285   1.906       .  S
O269        C275   1.276       .  A
O270        C275   1.277       .  A
C271        C855   1.480       .  S
O272        C274   1.274       .  A
O273       Ni284   1.913       .  S
C274        O280   1.281       .  A
C274        C471   1.520       .  S
C275        C324   1.458       .  S
H276        O277   0.966       .  S
O277       Ni285   1.896   1_565  S
O277       Ni279   1.905       .  S
O277       Ni284   1.896       .  S
O278       Ni279   1.966       .  S
Ni279       O283   1.892   1_565  S
Ni279       O281   1.885       .  S
O280       Ni285   1.964       .  S
C282        O283   1.264       .  A
C282        C591   1.471       .  S
O287       Ni293   1.923       .  S
O287        C308   1.269       .  A
O288       Ni311   1.957       .  S
O288        C297   1.283       .  A
O289       Ni293   1.896       .  S
O289       Ni311   1.933       .  S
O289       Ni305   1.940       .  S
O289        H312   0.966       .  S
C290        O307   1.285       .  A
C290        O299   1.281       .  A
C290        C375   1.495       .  S
O291       Ni310   1.925       .  S
O291        C297   1.271       .  A
O292       Ni310   1.904       .  S
O292        C294   1.270       .  A
Ni293       O296   1.911       .  S
Ni293       O298   1.902       .  S
C294        O304   1.279       .  A
C294        C420   1.499       .  S
O295       Ni311   1.965       .  S
O295        C301   1.287       .  A
O296        C301   1.275       .  A
C297        C519   1.508       .  S
O298        C300   1.271       .  A
O299       Ni310   1.929       .  S
C300        O306   1.283       .  A
C300        C447   1.492       .  S
C301        C396   1.509       .  S
H302        O303   0.966       .  S
O303       Ni311   1.934       .  S
O303       Ni305   1.912       .  S
O303       Ni310   1.890       .  S
O304       Ni305   1.959       .  S
Ni305       O309   1.938       .  S
Ni305       O307   1.946       .  S
O306       Ni311   1.958       .  S
C308        O309   1.276       .  A
C308        C807   1.487       .  S
C313        C314   1.395       .  A
C313        C318   1.402       .  A
C313        H329   1.084       .  S
C314        C315   1.401       .  A
C314        H330   1.084       .  S
C315        C325   1.394       .  A
C315        C316   1.413       .  A
C316        C322   1.410       .  A
C316        C317   1.398       .  A
C317        C319   1.412       .  A
C317        C318   1.411       .  A
C318        C326   1.392       .  A
C319        C328   1.389       .  A
C319        C320   1.401       .  A
C320        C321   1.392       .  A
C320        H331   1.084       .  S
C321        C322   1.402       .  A
C321        H332   1.084       .  S
C322        C323   1.389       .  A
C323        C324   1.404       .  A
C323        H333   1.085       .  S
C324        C325   1.400       .  A
C325        H334   1.085       .  S
C326        C327   1.400       .  A
C326        H335   1.085       .  S
C327        C328   1.399       .  A
C328        H336   1.086       .  S
C337        C338   1.396       .  A
C337        C342   1.403       .  A
C337        H353   1.084       .  S
C338        C339   1.402       .  A
C338        H354   1.084       .  S
C339        C349   1.397       .  A
C339        C340   1.414       .  A
C340        C346   1.409       .  A
C340        C341   1.399       .  A
C341        C343   1.413       .  A
C341        C342   1.411       .  A
C342        C350   1.393       .  A
C343        C352   1.389       .  A
C343        C344   1.400       .  A
C344        C345   1.390       .  A
C344        H355   1.084       .  S
C345        C346   1.401       .  A
C345        H356   1.084       .  S
C346        C347   1.384       .  A
C347        C348   1.401       .  A
C347        H357   1.086       .  S
C348        C349   1.401       .  A
C349        H358   1.085       .  S
C350        C351   1.401       .  A
C350        H359   1.085       .  S
C351        C352   1.397       .  A
C352        H360   1.085       .  S
C361        C362   1.404       .  A
C361        C366   1.405       .  A
C361        H377   1.083       .  S
C362        C363   1.406       .  A
C362        H378   1.083       .  S
C363        C373   1.411       .  A
C363        C364   1.410       .  A
C364        C370   1.412       .  A
C364        C365   1.419       .  A
C365        C367   1.410       .  A
C365        C366   1.413       .  A
C366        C374   1.414       .  A
C367        C376   1.406       .  A
C367        C368   1.404       .  A
C368        C369   1.400       .  A
C368        H379   1.083       .  S
C369        C370   1.404       .  A
C369        H380   1.084       .  S
C370        C371   1.408       .  A
C371        C372   1.410       .  A
C371        H381   1.084       .  S
C372        C373   1.414       .  A
C373        H382   1.084       .  S
C374        C375   1.411       .  A
C374        H383   1.084       .  S
C375        C376   1.411       .  A
C376        H384   1.084       .  S
C385        C386   1.407       .  A
C385        C390   1.408       .  A
C385        H401   1.083       .  S
C386        C387   1.406       .  A
C386        H402   1.083       .  S
C387        C397   1.422       .  A
C387        C388   1.415       .  A
C388        C394   1.406       .  A
C388        C389   1.422       .  A
C389        C391   1.414       .  A
C389        C390   1.408       .  A
C390        C398   1.413       .  A
C391        C400   1.411       .  A
C391        C392   1.403       .  A
C392        C393   1.400       .  A
C392        H403   1.084       .  S
C393        C394   1.405       .  A
C393        H404   1.084       .  S
C394        C395   1.403       .  A
C395        C396   1.416       .  A
C395        H405   1.084       .  S
C396        C397   1.414       .  A
C397        H406   1.084       .  S
C398        C399   1.417       .  A
C398        H407   1.084       .  S
C399        C400   1.409       .  A
C400        H408   1.084       .  S
C409        C410   1.409       .  A
C409        C414   1.407       .  A
C409        H425   1.083       .  S
C410        C411   1.408       .  A
C410        H426   1.083       .  S
C411        C421   1.421       .  A
C411        C412   1.412       .  A
C412        C418   1.411       .  A
C412        C413   1.420       .  A
C413        C415   1.408       .  A
C413        C414   1.413       .  A
C414        C422   1.421       .  A
C415        C424   1.398       .  A
C415        C416   1.403       .  A
C416        C417   1.395       .  A
C416        H427   1.084       .  S
C417        C418   1.402       .  A
C417        H428   1.084       .  S
C418        C419   1.401       .  A
C419        C420   1.408       .  A
C419        H429   1.085       .  S
C420        C421   1.416       .  A
C421        H430   1.084       .  S
C422        C423   1.415       .  A
C422        H431   1.084       .  S
C423        C424   1.413       .  A
C424        H432   1.084       .  S
C433        C434   1.406       .  A
C433        C438   1.406       .  A
C433        H449   1.083       .  S
C434        C435   1.406       .  A
C434        H450   1.083       .  S
C435        C445   1.417       .  A
C435        C436   1.413       .  A
C436        C442   1.409       .  A
C436        C437   1.418       .  A
C437        C439   1.411       .  A
C437        C438   1.412       .  A
C438        C446   1.415       .  A
C439        C448   1.402       .  A
C439        C440   1.403       .  A
C440        C441   1.397       .  A
C440        H451   1.084       .  S
C441        C442   1.403       .  A
C441        H452   1.084       .  S
C442        C443   1.401       .  A
C443        C444   1.412       .  A
C443        H453   1.084       .  S
C444        C445   1.413       .  A
C445        H454   1.084       .  S
C446        C447   1.411       .  A
C446        H455   1.084       .  S
C447        C448   1.410       .  A
C448        H456   1.085       .  S
C457        C458   1.410       .  A
C457        C462   1.408       .  A
C457        H473   1.083   1_545  S
C458        C459   1.407       .  A
C458        H474   1.083       .  S
C459        C469   1.425       .  A
C459        C460   1.414       .  A
C460        C466   1.409       .  A
C460        C461   1.428       .  A
C461        C463   1.411       .  A
C461        C462   1.412       .  A
C462        C470   1.423       .  A
C463        C472   1.414       .  A
C463        C464   1.405       .  A
C464        C465   1.403       .  A
C464        H475   1.084       .  S
C465        C466   1.406       .  A
C465        H476   1.084       .  S
C466        C467   1.411       .  A
C467        C468   1.418       .  A
C467        H477   1.084       .  S
C468        C469   1.416       .  A
C469        H478   1.083       .  S
C470        C471   1.418       .  A
C470        H479   1.083       .  S
C471        C472   1.416       .  A
C472        H480   1.084       .  S
C481        C482   1.398       .  A
C481        C486   1.403       .  A
C481        H497   1.084       .  S
C482        C483   1.403       .  A
C482        H498   1.084       .  S
C483        C493   1.404       .  A
C483        C484   1.408   1_565  A
C484        C490   1.413       .  A
C484        C485   1.426       .  A
C485        C487   1.412       .  A
C485        C486   1.411   1_545  A
C486        C494   1.407       .  A
C487        C496   1.427       .  A
C487        C488   1.410       .  A
C488        C489   1.413       .  A
C488        H499   1.083       .  S
C489        C490   1.409       .  A
C489        H500   1.083       .  S
C490        C491   1.428       .  A
C491        C492   1.420       .  A
C491        H501   1.083       .  S
C492        C493   1.415   1_545  A
C493        H502   1.084       .  S
C494        C495   1.412       .  A
C494        H503   1.084       .  S
C495        C496   1.421   1_565  A
C496        H504   1.083       .  S
C505        C506   1.404       .  A
C505        C510   1.407       .  A
C505        H521   1.084       .  S
C506        C507   1.405       .  A
C506        H522   1.084       .  S
C507        C517   1.417       .  A
C507        C508   1.416       .  A
C508        C514   1.408       .  A
C508        C509   1.422       .  A
C509        C511   1.416       .  A
C509        C510   1.407       .  A
C510        C518   1.409       .  A
C511        C520   1.417       .  A
C511        C512   1.404       .  A
C512        C513   1.403       .  A
C512        H523   1.083       .  S
C513        C514   1.405       .  A
C513        H524   1.083       .  S
C514        C515   1.407       .  A
C515        C516   1.412       .  A
C515        H525   1.084       .  S
C516        C517   1.411       .  A
C517        H526   1.084       .  S
C518        C519   1.418       .  A
C518        H527   1.084       .  S
C519        C520   1.410       .  A
C520        H528   1.084       .  S
C529        C530   1.394       .  A
C529        C534   1.401       .  A
C529        H545   1.084       .  S
C530        C531   1.401       .  A
C530        H546   1.084       .  S
C531        C541   1.393       .  A
C531        C532   1.412       .  A
C532        C538   1.413   1_554  A
C532        C533   1.403       .  A
C533        C535   1.411   1_554  A
C533        C534   1.412       .  A
C534        C542   1.394       .  A
C535        C544   1.394       .  A
C535        C536   1.403       .  A
C536        C537   1.396       .  A
C536        H547   1.084       .  S
C537        C538   1.402       .  A
C537        H548   1.084       .  S
C538        C539   1.396       .  A
C539        C540   1.401   1_556  A
C539        H549   1.085       .  S
C540        C541   1.399       .  A
C541        H550   1.085       .  S
C542        C543   1.401       .  A
C542        H551   1.085       .  S
C543        C544   1.405   1_554  A
C544        H552   1.085       .  S
C553        C554   1.396       .  A
C553        C558   1.403       .  A
C553        H569   1.084       .  S
C554        C555   1.403       .  A
C554        H570   1.084       .  S
C555        C565   1.399       .  A
C555        C556   1.413       .  A
C556        C562   1.410   1_556  A
C556        C557   1.402       .  A
C557        C559   1.412   1_556  A
C557        C558   1.409       .  A
C558        C566   1.393       .  A
C559        C568   1.394       .  A
C559        C560   1.401       .  A
C560        C561   1.394       .  A
C560        H571   1.084       .  S
C561        C562   1.402       .  A
C561        H572   1.084       .  S
C562        C563   1.392       .  A
C563        C564   1.403   1_554  A
C563        H573   1.085       .  S
C564        C565   1.405       .  A
C565        H574   1.085       .  S
C566        C567   1.407       .  A
C566        H575   1.084       .  S
C567        C568   1.403   1_556  A
C568        H576   1.085       .  S
C577        C578   1.397       .  A
C577        C582   1.403       .  A
C577        H593   1.084       .  S
C578        C579   1.402       .  A
C578        H594   1.084       .  S
C579        C589   1.398       .  A
C579        C580   1.412       .  A
C580        C586   1.412   1_545  A
C580        C581   1.408       .  A
C581        C583   1.411   1_545  A
C581        C582   1.412       .  A
C582        C590   1.400       .  A
C583        C592   1.400       .  A
C583        C584   1.403       .  A
C584        C585   1.398       .  A
C584        H595   1.084       .  S
C585        C586   1.403       .  A
C585        H596   1.084       .  S
C586        C587   1.401       .  A
C587        C588   1.404   1_565  A
C587        H597   1.085       .  S
C588        C589   1.402       .  A
C589        H598   1.085       .  S
C590        C591   1.404       .  A
C590        H599   1.084       .  S
C591        C592   1.406   1_545  A
C592        H600   1.085       .  S
C601        C602   1.396       .  A
C601        C606   1.402       .  A
C601        H617   1.084       .  S
C602        C603   1.403       .  A
C602        H618   1.084       .  S
C603        C613   1.396       .  A
C603        C604   1.407       .  A
C604        C610   1.414   1_554  A
C604        C605   1.416       .  A
C605        C607   1.410   1_554  A
C605        C606   1.412       .  A
C606        C614   1.402       .  A
C607        C616   1.411       .  A
C607        C608   1.406       .  A
C608        C609   1.405       .  A
C608        H619   1.083       .  S
C609        C610   1.406       .  A
C609        H620   1.083       .  S
C610        C611   1.416       .  A
C611        C612   1.411   1_556  A
C611        H621   1.084       .  S
C612        C613   1.411       .  A
C613        H622   1.084       .  S
C614        C615   1.408       .  A
C614        H623   1.084       .  S
C615        C616   1.413   1_554  A
C616        H624   1.084       .  S
C625        C626   1.397       .  A
C625        C630   1.402       .  A
C625        H641   1.084       .  S
C626        C627   1.403       .  A
C626        H642   1.084       .  S
C627        C637   1.400       .  A
C627        C628   1.410       .  A
C628        C634   1.412   1_556  A
C628        C629   1.415       .  A
C629        C631   1.412   1_556  A
C629        C630   1.411       .  A
C630        C638   1.402       .  A
C631        C640   1.410       .  A
C631        C632   1.405       .  A
C632        C633   1.403       .  A
C632        H643   1.083       .  S
C633        C634   1.405       .  A
C633        H644   1.083       .  S
C634        C635   1.410       .  A
C635        C636   1.411   1_554  A
C635        H645   1.084       .  S
C636        C637   1.409       .  A
C637        H646   1.084       .  S
C638        C639   1.406       .  A
C638        H647   1.084       .  S
C639        C640   1.410   1_556  A
C640        H648   1.084       .  S
C649        C650   1.404       .  A
C649        C654   1.405       .  A
C649        H665   1.083       .  S
C650        C651   1.405       .  A
C650        H666   1.083       .  S
C651        C661   1.413       .  A
C651        C652   1.414       .  A
C652        C658   1.410       .  A
C652        C653   1.419       .  A
C653        C655   1.413       .  A
C653        C654   1.412       .  A
C654        C662   1.410       .  A
C655        C664   1.409       .  A
C655        C656   1.404   1_655  A
C656        C657   1.401       .  A
C656        H667   1.083       .  S
C657        C658   1.404   1_455  A
C657        H668   1.084       .  S
C658        C659   1.405       .  A
C659        C660   1.409       .  A
C659        H669   1.084   1_655  S
C660        C661   1.409       .  A
C661        H670   1.084       .  S
C662        C663   1.408       .  A
C662        H671   1.084       .  S
C663        C664   1.406       .  A
C664        H672   1.085   1_655  S
C673        C674   1.402       .  A
C673        C678   1.405       .  A
C673        H689   1.084       .  S
C674        C675   1.406       .  A
C674        H690   1.083       .  S
C675        C685   1.410       .  A
C675        C676   1.411   1_556  A
C676        C682   1.412       .  A
C676        C677   1.421       .  A
C677        C679   1.411       .  A
C677        C678   1.411   1_554  A
C678        C686   1.410       .  A
C679        C688   1.412       .  A
C679        C680   1.406       .  A
C680        C681   1.403       .  A
C680        H691   1.083       .  S
C681        C682   1.405       .  A
C681        H692   1.083       .  S
C682        C683   1.413       .  A
C683        C684   1.411   1_554  A
C683        H693   1.084       .  S
C684        C685   1.414       .  A
C685        H694   1.084       .  S
C686        C687   1.412   1_556  A
C686        H695   1.084       .  S
C687        C688   1.413       .  A
C688        H696   1.084       .  S
C697        C698   1.405       .  A
C697        C702   1.407       .  A
C697        H713   1.083       .  S
C698        C699   1.406       .  A
C698        H714   1.083       .  S
C699        C709   1.419       .  A
C699        C700   1.415   1_554  A
C700        C706   1.408       .  A
C700        C701   1.424       .  A
C701        C703   1.415       .  A
C701        C702   1.408   1_556  A
C702        C710   1.412       .  A
C703        C712   1.417       .  A
C703        C704   1.405       .  A
C704        C705   1.404       .  A
C704        H715   1.083       .  S
C705        C706   1.406       .  A
C705        H716   1.083       .  S
C706        C707   1.410       .  A
C707        C708   1.417       .  A
C707        H717   1.084       .  S
C708        C709   1.414   1_556  A
C709        H718   1.084       .  S
C710        C711   1.415       .  A
C710        H719   1.084       .  S
C711        C712   1.411   1_554  A
C712        H720   1.084       .  S
C721        C722   1.394       .  A
C721        C726   1.402       .  A
C721        H737   1.084       .  S
C722        C723   1.401       .  A
C722        H738   1.084       .  S
C723        C733   1.394       .  A
C723        C724   1.412   1_556  A
C724        C730   1.413       .  A
C724        C725   1.407       .  A
C725        C727   1.412       .  A
C725        C726   1.410   1_554  A
C726        C734   1.394       .  A
C727        C736   1.404       .  A
C727        C728   1.404       .  A
C728        C729   1.400       .  A
C728        H739   1.084   1_455  S
C729        C730   1.404       .  A
C729        H740   1.083   1_455  S
C730        C731   1.404       .  A
C731        C732   1.404       .  A
C731        H741   1.085       .  S
C732        C733   1.400   1_554  A
C733        H742   1.085       .  S
C734        C735   1.406       .  A
C734        H743   1.085       .  S
C735        C736   1.406   1_556  A
C736        H744   1.084       .  S
C745        C746   1.394       .  A
C745        C750   1.402       .  A
C745        H761   1.084       .  S
C746        C747   1.402       .  A
C746        H762   1.084       .  S
C747        C757   1.395       .  A
C747        C748   1.411   1_554  A
C748        C754   1.412       .  A
C748        C749   1.407       .  A
C749        C751   1.413       .  A
C749        C750   1.411   1_556  A
C750        C758   1.394       .  A
C751        C760   1.402   1_655  A
C751        C752   1.403   1_655  A
C752        C753   1.399       .  A
C752        H763   1.084       .  S
C753        C754   1.404   1_455  A
C753        H764   1.083       .  S
C754        C755   1.402       .  A
C755        C756   1.405       .  A
C755        H765   1.084   1_655  S
C756        C757   1.403   1_556  A
C757        H766   1.085       .  S
C758        C759   1.403   1_554  A
C758        H767   1.085       .  S
C759        C760   1.403   1_655  A
C760        H768   1.084       .  S
C769        C770   1.406       .  A
C769        C774   1.407       .  A
C769        H785   1.083       .  S
C770        C771   1.406       .  A
C770        H786   1.083       .  S
C771        C781   1.414       .  A
C771        C772   1.413       .  A
C772        C778   1.410   1_545  A
C772        C773   1.416       .  A
C773        C775   1.411   1_545  A
C773        C774   1.413       .  A
C774        C782   1.415       .  A
C775        C784   1.400       .  A
C775        C776   1.402   1_455  A
C776        C777   1.396       .  A
C776        H787   1.084       .  S
C777        C778   1.402   1_655  A
C777        H788   1.084       .  S
C778        C779   1.399       .  A
C779        C780   1.408   1_565  A
C779        H789   1.084   1_455  S
C780        C781   1.411       .  A
C781        H790   1.084       .  S
C782        C783   1.410       .  A
C782        H791   1.084       .  S
C783        C784   1.405   1_545  A
C784        H792   1.085       .  S
C793        C794   1.402       .  A
C793        C798   1.405       .  A
C793        H809   1.083       .  S
C794        C795   1.404       .  A
C794        H810   1.084       .  S
C795        C805   1.411       .  A
C795        C796   1.413       .  A
C796        C802   1.410       .  A
C796        C797   1.420       .  A
C797        C799   1.415       .  A
C797        C798   1.410       .  A
C798        C806   1.408       .  A
C799        C808   1.414       .  A
C799        C800   1.405       .  A
C800        C801   1.403       .  A
C800        H811   1.083       .  S
C801        C802   1.406       .  A
C801        H812   1.083       .  S
C802        C803   1.409       .  A
C803        C804   1.413       .  A
C803        H813   1.084       .  S
C804        C805   1.410       .  A
C805        H814   1.084       .  S
C806        C807   1.409       .  A
C806        H815   1.085       .  S
C807        C808   1.407       .  A
C808        H816   1.084       .  S
C817        C818   1.403       .  A
C817        C822   1.406       .  A
C817        H833   1.083       .  S
C818        C819   1.404       .  A
C818        H834   1.083       .  S
C819        C829   1.413       .  A
C819        C820   1.414       .  A
C820        C826   1.411       .  A
C820        C821   1.421       .  A
C821        C823   1.413       .  A
C821        C822   1.410       .  A
C822        C830   1.411       .  A
C823        C832   1.413       .  A
C823        C824   1.405       .  A
C824        C825   1.403       .  A
C824        H835   1.083       .  S
C825        C826   1.405       .  A
C825        H836   1.083       .  S
C826        C827   1.410       .  A
C827        C828   1.409       .  A
C827        H837   1.084       .  S
C828        C829   1.407       .  A
C829        H838   1.084       .  S
C830        C831   1.413       .  A
C830        H839   1.084       .  S
C831        C832   1.410       .  A
C832        H840   1.084       .  S
C841        C842   1.400       .  A
C841        C846   1.404       .  A
C841        H857   1.084       .  S
C842        C843   1.404       .  A
C842        H858   1.084       .  S
C843        C853   1.402       .  A
C843        C844   1.410       .  A
C844        C850   1.414       .  A
C844        C845   1.413       .  A
C845        C847   1.410       .  A
C845        C846   1.413       .  A
C846        C854   1.407   1_565  A
C847        C856   1.402   1_565  A
C847        C848   1.404       .  A
C848        C849   1.399       .  A
C848        H859   1.083       .  S
C849        C850   1.403       .  A
C849        H860   1.084       .  S
C850        C851   1.405       .  A
C851        C852   1.404       .  A
C851        H861   1.084       .  S
C852        C853   1.407       .  A
C853        H862   1.085       .  S
C854        C855   1.406       .  A
C854        H863   1.084       .  S
C855        C856   1.407       .  A
C856        H864   1.084       .  S
C865        C866   1.403       .  A
C865        C870   1.405       .  A
C865        H881   1.083       .  S
C866        C867   1.405       .  A
C866        H882   1.084       .  S
C867        C877   1.412       .  A
C867        C868   1.412       .  A
C868        C874   1.411       .  A
C868        C869   1.421       .  A
C869        C871   1.412       .  A
C869        C870   1.411       .  A
C870        C878   1.411       .  A
C871        C880   1.414       .  A
C871        C872   1.406       .  A
C872        C873   1.404       .  A
C872        H883   1.083       .  S
C873        C874   1.406       .  A
C873        H884   1.083       .  S
C874        C875   1.411       .  A
C875        C876   1.413       .  A
C875        H885   1.084       .  S
C876        C877   1.412       .  A
C877        H886   1.084       .  S
C878        C879   1.413       .  A
C878        H887   1.084       .  S
C879        C880   1.413       .  A
C880        H888   1.084       .  S
C889        C890   1.403       .  A
C889        C894   1.405       .  A
C889        H905   1.083       .  S
C890        C891   1.406       .  A
C890        H906   1.083       .  S
C891        C901   1.412       .  A
C891        C892   1.411       .  A
C892        C898   1.413       .  A
C892        C893   1.422       .  A
C893        C895   1.410       .  A
C893        C894   1.412       .  A
C894        C902   1.414       .  A
C895        C904   1.412       .  A
C895        C896   1.406       .  A
C896        C897   1.404       .  A
C896        H907   1.083       .  S
C897        C898   1.405       .  A
C897        H908   1.083       .  S
C898        C899   1.414       .  A
C899        C900   1.412       .  A
C899        H909   1.084       .  S
C900        C901   1.413       .  A
C901        H910   1.084       .  S
C902        C903   1.412       .  A
C902        H911   1.084       .  S
C903        C904   1.415       .  A
C904        H912   1.084       .  S
C913        C914   1.404       .  A
C913        C918   1.406       .  A
C913        H929   1.083       .  S
C914        C915   1.405       .  A
C914        H930   1.083       .  S
C915        C925   1.410       .  A
C915        C916   1.413       .  A
C916        C922   1.410   1_565  A
C916        C917   1.411       .  A
C917        C919   1.410   1_565  A
C917        C918   1.412       .  A
C918        C926   1.410       .  A
C919        C928   1.395       .  A
C919        C920   1.402       .  A
C920        C921   1.393       .  A
C920        H931   1.084       .  S
C921        C922   1.401       .  A
C921        H932   1.084       .  S
C922        C923   1.393   1_545  A
C923        C924   1.402       .  A
C923        H933   1.085   1_565  S
C924        C925   1.406       .  A
C925        H934   1.084       .  S
C926        C927   1.410       .  A
C926        H935   1.084       .  S
C927        C928   1.407   1_565  A
C928        H936   1.084       .  S
C937        C938   1.404       .  A
C937        C942   1.405       .  A
C937        H953   1.084       .  S
C938        C939   1.407       .  A
C938        H954   1.083       .  S
C939        C949   1.409       .  A
C939        C940   1.409       .  A
C940        C946   1.414   1_455  A
C940        C941   1.420       .  A
C941        C943   1.409   1_455  A
C941        C942   1.414       .  A
C942        C950   1.414       .  A
C943        C952   1.406       .  A
C943        C944   1.405       .  A
C944        C945   1.401       .  A
C944        H955   1.083       .  S
C945        C946   1.404       .  A
C945        H956   1.083       .  S
C946        C947   1.413       .  A
C947        C948   1.408   1_655  A
C947        H957   1.084       .  S
C948        C949   1.415       .  A
C949        H958   1.084       .  S
C950        C951   1.409       .  A
C950        H959   1.084       .  S
C951        C952   1.410   1_455  A
C952        H960   1.084       .  S
C961        C962   1.398       .  A
C961        C966   1.402       .  A
C961        H977   1.084       .  S
C962        C963   1.404       .  A
C962        H978   1.083       .  S
C963        C973   1.400       .  A
C963        C964   1.409       .  A
C964        C970   1.413       .  A
C964        C965   1.409       .  A
C965        C967   1.409       .  A
C965        C966   1.413       .  A
C966        C974   1.402       .  A
C967        C976   1.397       .  A
C967        C968   1.403       .  A
C968        C969   1.397       .  A
C968        H979   1.084       .  S
C969        C970   1.402       .  A
C969        H980   1.084       .  S
C970        C971   1.402       .  A
C971        C972   1.405       .  A
C971        H981   1.084       .  S
C972        C973   1.410       .  A
C973        H982   1.084       .  S
C974        C975   1.404       .  A
C974        H983   1.084       .  S
C975        C976   1.408       .  A
C976        H984   1.084       .  S
C985        C986   1.397       .  A
C985        C990   1.403       .  A
C985       H1001   1.084       .  S
C986        C987   1.403       .  A
C986       H1002   1.084       .  S
C987        C997   1.399       .  A
C987        C988   1.412       .  A
C988        C994   1.411       .  A
C988        C989   1.405       .  A
C989        C991   1.412       .  A
C989        C990   1.411       .  A
C990        C998   1.397       .  A
C991       C1000   1.395       .  A
C991        C992   1.402       .  A
C992        C993   1.395       .  A
C992       H1003   1.084       .  S
C993        C994   1.402       .  A
C993       H1004   1.084       .  S
C994        C995   1.395       .  A
C995        C996   1.404       .  A
C995       H1005   1.085       .  S
C996        C997   1.405       .  A
C997       H1006   1.084       .  S
C998        C999   1.404       .  A
C998       H1007   1.085       .  S
C999       C1000   1.403       .  A
C1000      H1008   1.085       .  S
C1009      C1010   1.403       .  A
C1009      C1014   1.404       .  A
C1009      H1025   1.083       .  S
C1010      C1011   1.405       .  A
C1010      H1026   1.083       .  S
C1011      C1021   1.409       .  A
C1011      C1012   1.410       .  A
C1012      C1018   1.414       .  A
C1012      C1013   1.420       .  A
C1013      C1015   1.409       .  A
C1013      C1014   1.414       .  A
C1014      C1022   1.413       .  A
C1015      C1024   1.409       .  A
C1015      C1016   1.406       .  A
C1016      C1017   1.403       .  A
C1016      H1027   1.083       .  S
C1017      C1018   1.405       .  A
C1017      H1028   1.083       .  S
C1018      C1019   1.413       .  A
C1019      C1020   1.410       .  A
C1019      H1029   1.084       .  S
C1020      C1021   1.412       .  A
C1021      H1030   1.084       .  S
C1022      C1023   1.409       .  A
C1022      H1031   1.084       .  S
C1023      C1024   1.413       .  A
C1024      H1032   1.084       .  S
C1033      C1034   1.408       .  A
C1033      C1038   1.407       .  A
C1033      H1049   1.083       .  S
C1034      C1035   1.407       .  A
C1034      H1050   1.083       .  S
C1035      C1045   1.422       .  A
C1035      C1036   1.415   1_565  A
C1036      C1042   1.409       .  A
C1036      C1037   1.423       .  A
C1037      C1039   1.414       .  A
C1037      C1038   1.411   1_545  A
C1038      C1046   1.416       .  A
C1039      C1048   1.412       .  A
C1039      C1040   1.403   1_655  A
C1040      C1041   1.401       .  A
C1040      H1051   1.083       .  S
C1041      C1042   1.405   1_455  A
C1041      H1052   1.083       .  S
C1042      C1043   1.407       .  A
C1043      C1044   1.412       .  A
C1043      H1053   1.084   1_655  S
C1044      C1045   1.413   1_545  A
C1045      H1054   1.084       .  S
C1046      C1047   1.414   1_565  A
C1046      H1055   1.084       .  S
C1047      C1048   1.407       .  A
C1048      H1056   1.084   1_655  S
C1057      C1058   1.403       .  A
C1057      C1062   1.405       .  A
C1057      H1073   1.083       .  S
C1058      C1059   1.405       .  A
C1058      H1074   1.083   1_455  S
C1059      C1069   1.410       .  A
C1059      C1060   1.410       .  A
C1060      C1066   1.412       .  A
C1060      C1061   1.419       .  A
C1061      C1063   1.410       .  A
C1061      C1062   1.412       .  A
C1062      C1070   1.411       .  A
C1063      C1072   1.408       .  A
C1063      C1064   1.405       .  A
C1064      C1065   1.402       .  A
C1064      H1075   1.084       .  S
C1065      C1066   1.405       .  A
C1065      H1076   1.084       .  S
C1066      C1067   1.410       .  A
C1067      C1068   1.413       .  A
C1067      H1077   1.084       .  S
C1068      C1069   1.413       .  A
C1069      H1078   1.084   1_455  S
C1070      C1071   1.410       .  A
C1070      H1079   1.084       .  S
C1071      C1072   1.412       .  A
C1072      H1080   1.084       .  S
C1081      C1082   1.402       .  A
C1081      C1086   1.404       .  A
C1081      H1097   1.083       .  S
C1082      C1083   1.405       .  A
C1082      H1098   1.083       .  S
C1083      C1093   1.408       .  A
C1083      C1084   1.410       .  A
C1084      C1090   1.413       .  A
C1084      C1085   1.422       .  A
C1085      C1087   1.410       .  A
C1085      C1086   1.412       .  A
C1086      C1094   1.412       .  A
C1087      C1096   1.414       .  A
C1087      C1088   1.407       .  A
C1088      C1089   1.405       .  A
C1088      H1099   1.083   1_455  S
C1089      C1090   1.406       .  A
C1089      H1100   1.084       .  S
C1090      C1091   1.415       .  A
C1091      C1092   1.413       .  A
C1091      H1101   1.084       .  S
C1092      C1093   1.413       .  A
C1093      H1102   1.084       .  S
C1094      C1095   1.412       .  A
C1094      H1103   1.084       .  S
C1095      C1096   1.418       .  A
C1096      H1104   1.084       .  S
C1105      C1106   1.398       .  A
C1105      C1110   1.403       .  A
C1105      H1121   1.084       .  S
C1106      C1107   1.403       .  A
C1106      H1122   1.083       .  S
C1107      C1117   1.402       .  A
C1107      C1108   1.413       .  A
C1108      C1114   1.408       .  A
C1108      C1109   1.403       .  A
C1109      C1111   1.411       .  A
C1109      C1110   1.410       .  A
C1110      C1118   1.396       .  A
C1111      C1120   1.390       .  A
C1111      C1112   1.400       .  A
C1112      C1113   1.391       .  A
C1112      H1123   1.084       .  S
C1113      C1114   1.401       .  A
C1113      H1124   1.084       .  S
C1114      C1115   1.388       .  A
C1115      C1116   1.405       .  A
C1115      H1125   1.084       .  S
C1116      C1117   1.406       .  A
C1117      H1126   1.084       .  S
C1118      C1119   1.406       .  A
C1118      H1127   1.084       .  S
C1119      C1120   1.403       .  A
C1120      H1128   1.085       .  S
C1129      C1130   1.394       .  A
C1129      C1134   1.402       .  A
C1129      H1145   1.084       .  S
C1130      C1131   1.401       .  A
C1130      H1146   1.084       .  S
C1131      C1141   1.397       .  A
C1131      C1132   1.412       .  A
C1132      C1138   1.409       .  A
C1132      C1133   1.407       .  A
C1133      C1135   1.413       .  A
C1133      C1134   1.408       .  A
C1134      C1142   1.393       .  A
C1135      C1144   1.403       .  A
C1135      C1136   1.403       .  A
C1136      C1137   1.398       .  A
C1136      H1147   1.084       .  S
C1137      C1138   1.404       .  A
C1137      H1148   1.084       .  S
C1138      C1139   1.399       .  A
C1139      C1140   1.409       .  A
C1139      H1149   1.084       .  S
C1140      C1141   1.405       .  A
C1141      H1150   1.084       .  S
C1142      C1143   1.408       .  A
C1142      H1151   1.084       .  S
C1143      C1144   1.407       .  A
C1144      H1152   1.084       .  S
C1153      C1154   1.407       .  A
C1153      C1158   1.406       .  A
C1153      H1169   1.083       .  S
C1154      C1155   1.408       .  A
C1154      H1170   1.083   1_455  S
C1155      C1165   1.418       .  A
C1155      C1156   1.412   1_565  A
C1156      C1162   1.412       .  A
C1156      C1157   1.419       .  A
C1157      C1159   1.409       .  A
C1157      C1158   1.414   1_545  A
C1158      C1166   1.418       .  A
C1159      C1168   1.400       .  A
C1159      C1160   1.403       .  A
C1160      C1161   1.397       .  A
C1160      H1171   1.084       .  S
C1161      C1162   1.403       .  A
C1161      H1172   1.084       .  S
C1162      C1163   1.405       .  A
C1163      C1164   1.406       .  A
C1163      H1173   1.084       .  S
C1164      C1165   1.414   1_545  A
C1165      H1174   1.084       .  S
C1166      C1167   1.411       .  A
C1166      H1175   1.084       .  S
C1167      C1168   1.411   1_565  A
C1168      H1176   1.084       .  S
