geometry optimzed in LAMMPS
_audit_creation_date              2020-11-30 
_audit_creation_method            'lammps2cif' 
_symmetry_space_group_name_H-M    'P1' 
_symmetry_Int_Tables_number       1 
_symmetry_cell_setting            triclinic 
loop_ 
_symmetry_equiv_pos_as_xyz 
  x,y,z 
_cell_length_a                    34.61668478 
_cell_length_b                    34.52404610944037 
_cell_length_c                    32.674839938176255 
_cell_angle_alpha                 89.80091450776021 
_cell_angle_beta                  89.83809581290032 
_cell_angle_gamma                 120.22009641062884 
loop_ 
_atom_site_label 
_atom_site_type_symbol 
_atom_site_fract_x 
_atom_site_fract_y 
_atom_site_fract_z 
_atom_site_charge 
O1          O  0.32980327  0.95503010  0.02948692    -0.84800
O2          O  0.28022605  0.99371349  0.04308270    -0.81800
C3          C  0.25029430  0.00149903  0.05432450     0.98700
O4          O  0.22303591  0.97806018  0.08259595    -0.81900
O5          O  0.17480244  0.89536892  0.04641357    -0.84500
C6          C  0.16506168  0.85827691  0.03103786     1.03200
O7          O  0.18806728  0.83978469  0.03961169    -0.77300
O8          O  0.27067659  0.89451541  0.00748079    -0.77500
C9          C  0.30756106  0.92916794  0.00058492     1.03200
O10         O  0.33247373  0.94472141  0.11667407    -0.84800
O11         O  0.29063996  0.99157845  0.13048099    -0.81800
C12         C  0.26506831  0.96869806  0.15967428     0.98700
O13         O  0.23156647  0.93102582  0.15312808    -0.81900
O14         O  0.17665589  0.84958774  0.12034394    -0.84500
C15         C  0.19491713  0.82672895  0.12982597     1.03200
O16         O  0.23194717  0.83598120  0.11446132    -0.77300
O17         O  0.31604413  0.88581594  0.07921739    -0.77400
C18         C  0.34022251  0.91448818  0.10614403     1.03100
Cr19       Cr  0.30459787  0.96754275  0.07997565     1.93700
Cr20       Cr  0.20495442  0.91377216  0.09929399     1.93200
Cr21       Cr  0.25195501  0.86734731  0.06150043     1.39100
O22         O  0.25377531  0.91600506  0.08030199    -1.22500
O23         O  0.34699181  0.98953156  0.80815482    -0.84800
O24         O  0.37119757  0.05622315  0.74988102    -0.81800
C25         C  0.40621895  0.08481063  0.76761127     0.98700
O26         O  0.44018419  0.08007400  0.76719929    -0.81900
O27         O  0.49041893  0.03804915  0.76146580    -0.84500
C28         C  0.48705917  0.01677862  0.79401185     1.03200
O29         O  0.45053152  0.98184442  0.80336152    -0.77300
O30         O  0.35879216  0.93272047  0.80955641    -0.77500
C31         C  0.34746649  0.95803567  0.82758593     1.03200
O32         O  0.30786791  0.92457130  0.74755242    -0.84800
O33         O  0.34475338  0.99042183  0.68732675    -0.81800
C34         C  0.37461043  0.02297695  0.66692056     0.98700
O35         O  0.40962480  0.05156805  0.68487348    -0.81900
O36         O  0.45449208  0.00449637  0.68208558    -0.84500
C37         C  0.45894279  0.97071667  0.68849572     1.03200
O38         O  0.44611001  0.94974787  0.72208410    -0.77300
O39         O  0.35362858  0.90426758  0.72428351    -0.77400
C40         C  0.31449790  0.89818859  0.72654834     1.03100
Cr41       Cr  0.34659492  0.99043293  0.74793623     1.93700
Cr42       Cr  0.44533839  0.04008073  0.72550502     1.93200
Cr43       Cr  0.40174190  0.94535094  0.76354066     1.39100
O44         O  0.39853665  0.99213059  0.74617251    -1.22500
O45         O  0.99049323  0.28653119  0.13599051    -0.84800
O46         O  0.03925277  0.37504809  0.12118611    -0.81800
C47         C  0.07009662  0.41310811  0.11097158     0.98700
O48         O  0.09803393  0.41704858  0.08351411    -0.81900
O49         O  0.14340331  0.37901946  0.12152990    -0.84500
C50         C  0.15195662  0.35030517  0.13622334     1.03200
O51         O  0.12986272  0.30984472  0.12368429    -0.77300
O52         O  0.04746072  0.28034337  0.15643076    -0.77500
C53         C  0.01171379  0.27992371  0.16416319     1.03200
O54         O  0.98664769  0.27312203  0.04786659    -0.84800
O55         O  0.02946509  0.36096874  0.03302430    -0.81800
C56         C  0.05423620  0.36205925  0.00381184     0.98700
O57         O  0.09029469  0.36297577  0.01164596    -0.81900
O58         O  0.14359685  0.33453144  0.04635822    -0.84500
C59         C  0.12545405  0.29394008  0.03460632     1.03200
O60         O  0.08687276  0.26576131  0.04751752    -0.77300
O61         O  0.00136144  0.22934117  0.08467643    -0.77400
C62         C  0.97571128  0.23471320  0.06026511     1.03100
Cr63       Cr  0.01518352  0.32390603  0.08453624     1.93700
Cr64       Cr  0.11532202  0.37027421  0.06701495     1.93200
Cr65       Cr  0.06623972  0.27455497  0.10147762     1.39100
O66         O  0.06554109  0.32286586  0.08447472    -1.22500
O67         O  0.38425508  0.33213304  0.88237068    -0.84800
O68         O  0.29668832  0.29273234  0.86693760    -0.81800
C69         C  0.29308231  0.26682532  0.83790777     0.98700
O70         O  0.29358393  0.23138098  0.84456386    -0.81900
O71         O  0.32041980  0.17672973  0.87641872    -0.84500
C72         C  0.36158555  0.19539877  0.86618757     1.03200
O73         O  0.38960531  0.23266020  0.88104925    -0.77300
O74         O  0.42528113  0.31513387  0.92058476    -0.77500
C75         C  0.42183133  0.34136717  0.89523224     1.03200
O76         O  0.36948840  0.32570861  0.97034651    -0.84800
O77         O  0.28111774  0.28037189  0.95491927    -0.81800
C78         C  0.24311544  0.25149743  0.94298781     0.98700
O79         O  0.23901703  0.22303876  0.91604167    -0.81900
O80         O  0.27339213  0.17391717  0.95175768    -0.84500
C81         C  0.30055995  0.16299663  0.96516573     1.03200
O82         O  0.34158457  0.18488562  0.95449626    -0.77300
O83         O  0.36918673  0.26497941  0.98988388    -0.77400
C84         C  0.37244974  0.30181398  0.99840817     1.03100
Cr85       Cr  0.33279587  0.30411677  0.91857685     1.93700
Cr86       Cr  0.28463659  0.20448595  0.89863083     1.93200
Cr87       Cr  0.37845248  0.24979568  0.93508449     1.39100
O88         O  0.33194262  0.25278473  0.91733592    -1.22500
O89         O  0.99011527  0.28771898  0.36327631    -0.84800
O90         O  0.94305926  0.32692532  0.38270784    -0.81800
C91         C  0.91567774  0.33674668  0.39691974     0.98700
O92         O  0.88807542  0.31221438  0.42451075    -0.81900
O93         O  0.83742789  0.22745738  0.38927066    -0.84500
C94         C  0.82750638  0.19000026  0.37433383     1.03200
O95         O  0.85073165  0.17181046  0.38305846    -0.77300
O96         O  0.93084367  0.22453813  0.34545222    -0.77500
C97         C  0.96646907  0.25962837  0.33609535     1.03200
O98         O  0.00106834  0.27940755  0.45033109    -0.84800
O99         O  0.96036878  0.32551317  0.47000702    -0.81800
C100        C  0.93501499  0.30377507  0.49986775     0.98700
O101        O  0.89982614  0.26706127  0.49428421    -0.81900
O102        O  0.84443874  0.18439447  0.46310692    -0.84500
C103        C  0.86436510  0.16303916  0.47241009     1.03200
O104        O  0.90080128  0.17288976  0.45550269    -0.77300
O105        O  0.98101093  0.21893116  0.41432706    -0.77400
C106        C  0.00787285  0.24882843  0.43898050     1.03100
Cr107      Cr  0.96982956  0.30114418  0.41679929     1.93700
Cr108      Cr  0.87089100  0.24799719  0.44101369     1.93200
Cr109      Cr  0.91603726  0.20049865  0.40104936     1.39100
O110        O  0.91895603  0.24986604  0.41960198    -1.22500
O111        O  0.32101490  0.36441785  0.21724256    -0.84800
O112        O  0.36622161  0.32293886  0.19791760    -0.81800
C113        C  0.39195183  0.34711099  0.16931804     0.98700
O114        O  0.42611898  0.38412892  0.17641882    -0.81900
O115        O  0.47630963  0.46606132  0.20979555    -0.84500
C116        C  0.45527835  0.48626631  0.20039274     1.03200
O117        O  0.41760046  0.47427070  0.21611455    -0.77300
O118        O  0.33554745  0.42180104  0.25555198    -0.77500
C119        C  0.31057932  0.39207782  0.22980207     1.03200
O120        O  0.32986829  0.35334906  0.30439721    -0.84800
O121        O  0.37997436  0.31703170  0.28461979    -0.81800
C122        C  0.41082478  0.31168027  0.27131769     0.98700
O123        O  0.43876410  0.33904133  0.24537602    -0.81900
O124        O  0.48322145  0.42263176  0.28348252    -0.84500
C125        C  0.49119588  0.45960955  0.29823526     1.03200
O126        O  0.46623205  0.47559358  0.28876662    -0.77300
O127        O  0.38644629  0.41710876  0.32464303    -0.77400
C128        C  0.35266754  0.37981439  0.33293124     1.03100
Cr129      Cr  0.35296216  0.34346723  0.25102620     1.93700
Cr130      Cr  0.45250810  0.40240117  0.23045248     1.93200
Cr131      Cr  0.40130897  0.44377754  0.26977690     1.39100
O132        O  0.40223796  0.39649437  0.25040232    -1.22500
O133        O  0.95681988  0.32999268  0.69946688    -0.84800
O134        O  0.04494822  0.37508959  0.71457532    -0.81800
C135        C  0.08328566  0.40601134  0.72357501     0.98700
O136        O  0.08801877  0.43456188  0.75087046    -0.81900
O137        O  0.05191560  0.48327612  0.71626214    -0.84500
C138        C  0.02386766  0.49290599  0.70225287     1.03200
O139        O  0.98331400  0.47067533  0.71440554    -0.77300
O140        O  0.95505578  0.38951438  0.67880902    -0.77500
C141        C  0.95338098  0.35311496  0.67082989     1.03200
O142        O  0.94314938  0.32730462  0.78861757    -0.84800
O143        O  0.03024105  0.36451577  0.80241798    -0.81800
C144        C  0.03210055  0.38911253  0.83192868     0.98700
O145        O  0.03399547  0.42581054  0.82465029    -0.71100
O146        O  0.00589476  0.48028282  0.79255787    -0.84500
C147        C  0.96476069  0.46159727  0.80331452     1.03200
O148        O  0.93701932  0.42396000  0.78863159    -0.77300
O149        O  0.90069650  0.34050552  0.74916688    -0.77400
C150        C  0.90516047  0.31555979  0.77524113     1.03100
Cr151      Cr  0.99373026  0.35274123  0.75127229     1.93700
Cr152      Cr  0.04200454  0.45268224  0.76978350     1.93200
Cr153      Cr  0.94722143  0.40599491  0.73420852     1.39100
O154        O  0.99465984  0.40404546  0.75134475    -1.22500
O155        O  0.29487700  0.99424719  0.35599364    -0.84800
O156        O  0.38071834  0.03954601  0.37856660    -0.81800
C157        C  0.41699387  0.06563254  0.39530524     0.98700
O158        O  0.41855270  0.09253515  0.42254555    -0.81900
O159        O  0.38947703  0.14404289  0.38182254    -0.84500
C160        C  0.36393929  0.15470027  0.36400742     1.03200
O161        O  0.32228211  0.13420354  0.37268217    -0.77300
O162        O  0.29286322  0.05428469  0.33716191    -0.77500
C163        C  0.29233388  0.01875251  0.32859213     1.03200
O164        O  0.27046663  0.98173614  0.44087802    -0.84800
O165        O  0.35563990  0.02108435  0.46466366    -0.81800
C166        C  0.35749980  0.04596657  0.49391612     0.98700
O167        O  0.35730017  0.08174739  0.48751600    -0.81900
O168        O  0.33693471  0.14116069  0.45312003    -0.84500
C169        C  0.29546566  0.12271486  0.46190856     1.03200
O170        O  0.26820742  0.08654263  0.44485654    -0.77300
O171        O  0.23302932  0.00536210  0.40473383    -0.77400
C172        C  0.23407374  0.97700905  0.42902092     1.03100
Cr173      Cr  0.32560623  0.01306610  0.41011908     1.93700
Cr174      Cr  0.37240198  0.11167259  0.43446514     1.93200
Cr175      Cr  0.28208854  0.06964762  0.39152823     1.39100
O176        O  0.32639237  0.06454091  0.41213888    -1.22500
O177        O  0.32930031  0.36997282  0.62211229    -0.84800
O178        O  0.28558474  0.28143945  0.63836033    -0.81800
C179        C  0.25992058  0.28028446  0.66673592     0.98700
O180        O  0.22619784  0.28305827  0.65787516    -0.81900
O181        O  0.17468771  0.31266167  0.62269466    -0.84500
C182        C  0.19406382  0.35418830  0.63213922     1.03200
O183        O  0.23251673  0.38093021  0.61810490    -0.77300
O184        O  0.31689079  0.41273112  0.58138922    -0.77500
C185        C  0.34099988  0.40805543  0.60815140     1.03200
O186        O  0.32682965  0.35389064  0.53415466    -0.84800
O187        O  0.27791261  0.26664286  0.55065170    -0.81800
C188        C  0.24677835  0.22908730  0.56147928     0.98700
O189        O  0.21764356  0.22617056  0.58738319    -0.81900
O190        O  0.17276607  0.26377908  0.54907731    -0.84500
C191        C  0.16445281  0.29215249  0.53352073     1.03200
O192        O  0.18790895  0.33329238  0.54367820    -0.77300
O193        O  0.26951286  0.35773944  0.51127853    -0.77400
C194        C  0.30428177  0.35587368  0.50447811     1.03100
Cr195      Cr  0.30132668  0.31824389  0.58633533     1.93700
Cr196      Cr  0.20123868  0.27429801  0.60301384     1.93200
Cr197      Cr  0.25187407  0.36811960  0.56517372     1.39100
O198        O  0.25139224  0.32015491  0.58471729    -1.22500
O199        O  0.04010939  0.66329128  0.62211189    -0.84800
O200        O  0.99333081  0.70366546  0.63908843    -0.81800
C201        C  0.01688631  0.73094035  0.66677566     0.98700
O202        O  0.05303203  0.76581730  0.65783144    -0.81900
O203        O  0.13432227  0.81693783  0.62097100    -0.84500
C204        C  0.15632711  0.79747734  0.62966953     1.03200
O205        O  0.14537736  0.75973812  0.61505017    -0.77300
O206        O  0.09437504  0.67592701  0.58029199    -0.77500
C207        C  0.06719782  0.65263490  0.60866615     1.03200
O208        O  0.02427230  0.66419651  0.53426958    -0.84800
O209        O  0.98466578  0.71203158  0.55185038    -0.81800
C210        C  0.97890008  0.74353349  0.56247671     0.98700
O211        O  0.00559180  0.77314642  0.58742052    -0.81900
O212        O  0.08717826  0.81858697  0.54757112    -0.84500
C213        C  0.12309535  0.82649412  0.53055764     1.03200
O214        O  0.14166070  0.80416747  0.54105372    -0.77300
O215        O  0.08461224  0.72238792  0.50994424    -0.77400
C216        C  0.04870633  0.68646539  0.50411030     1.03100
Cr217      Cr  0.01439104  0.68942460  0.58662464     1.93700
Cr218      Cr  0.06972822  0.79018866  0.60209399     1.93200
Cr219      Cr  0.11314481  0.74043276  0.56322497     1.39100
O220        O  0.06570369  0.74015711  0.58396431    -1.22500
O221        O  0.72163754  0.99945198  0.55080156    -0.84800
O222        O  0.63569742  0.96578100  0.53040794    -0.81800
C223        C  0.63160058  0.93899021  0.50244227     0.98700
O224        O  0.63085517  0.90308985  0.51022616    -0.81900
O225        O  0.65204607  0.84543490  0.54522439    -0.84500
C226        C  0.69380312  0.86298621  0.53807281     1.03200
O227        O  0.72157154  0.89831553  0.55605480    -0.77300
O228        O  0.75705924  0.98068121  0.59454406    -0.77500
C229        C  0.75740129  0.00645168  0.56645971     1.03200
O230        O  0.70021497  0.99608286  0.63612892    -0.84800
O231        O  0.61338435  0.95464609  0.61533260    -0.81800
C232        C  0.57591574  0.92636108  0.60160693     0.98700
O233        O  0.57226055  0.89595235  0.57721132    -0.81900
O234        O  0.59955182  0.84206331  0.61654037    -0.84500
C235        C  0.62464816  0.83035385  0.63356448     1.03200
O236        O  0.66665182  0.85217079  0.62698665    -0.77300
O237        O  0.69443795  0.93416196  0.66088137    -0.77400
C238        C  0.69812703  0.97186562  0.66600581     1.03100
Cr239      Cr  0.66755671  0.97504077  0.58336041     1.93700
Cr240      Cr  0.61681220  0.87491520  0.56403956     1.93200
Cr241      Cr  0.70695783  0.91670413  0.60800129     1.39100
O242        O  0.66347339  0.92199652  0.58536449    -1.22500
O243        O  0.04579792  0.66403117  0.21677867    -0.84800
O244        O  0.95794064  0.62399487  0.20081665    -0.81800
C245        C  0.95246014  0.59688003  0.17232417     0.98700
O246        O  0.95347216  0.56163655  0.17955431    -0.81900
O247        O  0.98262160  0.50813569  0.21242313    -0.84500
C248        C  0.02398843  0.52639447  0.20305255     1.03200
O249        O  0.05193260  0.56388561  0.21781448    -0.77300
O250        O  0.08695953  0.64719238  0.25514742    -0.77500
C251        C  0.08346755  0.67100489  0.22722087     1.03200
O252        O  0.02930055  0.65839301  0.30428030    -0.84800
O253        O  0.94180642  0.61262006  0.28848667    -0.81800
C254        C  0.90401280  0.58233589  0.27756996     0.98700
O255        O  0.90020380  0.55327853  0.25149918    -0.81900
O256        O  0.93608485  0.50563063  0.28795605    -0.84500
C257        C  0.96372798  0.49567914  0.30221442     1.03200
O258        O  0.00446915  0.51834763  0.29116159    -0.77300
O259        O  0.03060004  0.59942863  0.32622114    -0.77400
C260        C  0.02908212  0.63434163  0.33376015     1.03100
Cr261      Cr  0.99377148  0.63600058  0.25255209     1.93700
Cr262      Cr  0.94636530  0.53562334  0.23425917     1.93200
Cr263      Cr  0.04036068  0.58272494  0.27125789     1.39100
O264        O  0.99353066  0.58477862  0.25235478    -1.22500
O265        O  0.66020252  0.62900235  0.46813175    -0.84800
O266        O  0.70873906  0.71685951  0.45121970    -0.81800
C267        C  0.73955660  0.75451768  0.44014224     0.98700
O268        O  0.76751536  0.75799621  0.41293105    -0.81900
O269        O  0.81439003  0.72326230  0.45051847    -0.84500
C270        C  0.82329130  0.69588288  0.46721751     1.03200
O271        O  0.80081999  0.65437385  0.45824583    -0.77300
O272        O  0.71882010  0.62708042  0.49031607    -0.77500
C273        C  0.68248528  0.62567456  0.49716461     1.03200
O274        O  0.65673999  0.61260484  0.38109925    -0.84800
O275        O  0.69791645  0.70082303  0.36420475    -0.81800
C276        C  0.72425679  0.70442977  0.33556183     0.98700
O277        O  0.75883127  0.70250218  0.34276345    -0.81900
O278        O  0.81242963  0.67457838  0.37707043    -0.84500
C279        C  0.79393472  0.63298045  0.36855797     1.03200
O280        O  0.75668223  0.60559598  0.38409248    -0.77300
O281        O  0.67318434  0.57112321  0.41978772    -0.77400
C282        C  0.64863824  0.57476436  0.39285619     1.03100
Cr283      Cr  0.68471137  0.66478681  0.41614414     1.93700
Cr284      Cr  0.78478288  0.71126891  0.39719843     1.93200
Cr285      Cr  0.73715466  0.61776071  0.43657422     1.39100
O286        O  0.73556744  0.66453327  0.41651723    -1.22500
O287        O  0.63940464  0.64204123  0.69005600    -0.84800
O288        O  0.60801680  0.67904169  0.74701870    -0.81800
C289        C  0.57314541  0.67066450  0.72792480     0.98700
O290        O  0.54047410  0.63084927  0.72730983    -0.81900
O291        O  0.49528891  0.53758257  0.72966563    -0.84500
C292        C  0.50311939  0.52569497  0.69554995     1.03200
O293        O  0.54163857  0.53164765  0.68809469    -0.77300
O294        O  0.63328447  0.57598335  0.68897127    -0.77500
C295        C  0.64196490  0.61178029  0.67063531     1.03200
O296        O  0.67745532  0.61722926  0.75442865    -0.84800
O297        O  0.63442661  0.64149536  0.81106976    -0.81800
C298        C  0.60239802  0.64049359  0.83063390     0.98700
O299        O  0.56705857  0.63135691  0.81163185    -0.81900
O300        O  0.52932114  0.54001932  0.81077020    -0.84500
C301        C  0.52743830  0.50312242  0.80341080     1.03200
O302        O  0.53979172  0.49713960  0.76878887    -0.77300
O303        O  0.63246823  0.54780680  0.77239592    -0.77400
C304        C  0.67112516  0.58224668  0.77249600     1.03100
Cr305      Cr  0.63620984  0.64125954  0.75059049     1.93700
Cr306      Cr  0.53643819  0.58517991  0.76839668     1.93200
Cr307      Cr  0.58672118  0.54153313  0.73100046     1.39100
O308        O  0.58612070  0.58901889  0.74984962    -1.22500
O309        O  0.70383363  0.97496624  0.91493629    -0.84800
O310        O  0.67411376  0.01055111  0.97465833    -0.81800
C311        C  0.67134985  0.04007857  0.99506923     0.98700
O312        O  0.68290825  0.07795764  0.97899941    -0.81900
O313        O  0.77460867  0.12358531  0.97893840    -0.84500
C314        C  0.81191789  0.12591087  0.97264356     1.03200
O315        O  0.81915445  0.11270327  0.93905930    -0.77300
O316        O  0.76993789  0.02013958  0.93882343    -0.77500
C317        C  0.73642101  0.98108504  0.93642853     1.03200
O318        O  0.68034947  0.01878904  0.85488123    -0.84800
O319        O  0.63713790  0.03927487  0.91472188    -0.81800
C320        C  0.64397566  0.07305611  0.89463414     0.98700
O321        O  0.68274610  0.10731000  0.89461993    -0.81900
O322        O  0.77519753  0.15808669  0.89794237    -0.84500
C323        C  0.79165395  0.15275020  0.86532333     1.03200
O324        O  0.78950346  0.11573675  0.85803870    -0.77300
O325        O  0.74608837  0.02425030  0.85414736    -0.77400
C326        C  0.71168351  0.01851158  0.83536574     1.03100
Cr327      Cr  0.67763039  0.01450742  0.91480210     1.93700
Cr328      Cr  0.72876489  0.11349905  0.93624753     1.93200
Cr329      Cr  0.77774001  0.06798716  0.89891017     1.39100
O330        O  0.72870294  0.06591717  0.91705292    -1.22500
O331        O  0.67825109  0.05835331  0.25134712    -0.84800
O332        O  0.63978997  0.99248823  0.31038908    -0.81800
C333        C  0.60987109  0.96025150  0.33083066     0.98700
O334        O  0.57398601  0.93254010  0.31346202    -0.81900
O335        O  0.53331145  0.98321945  0.31549785    -0.84500
C336        C  0.52911527  0.01693630  0.30816499     1.03200
O337        O  0.54009155  0.03572386  0.27346990    -0.77300
O338        O  0.63261394  0.07949869  0.27342874    -0.77500
C339        C  0.67146655  0.08454039  0.27273661     1.03200
O340        O  0.63694812  0.99189602  0.19041016    -0.84800
O341        O  0.61125168  0.92616627  0.24859017    -0.81800
C342        C  0.57584117  0.89864659  0.23067360     0.98700
O343        O  0.54257816  0.90443304  0.23128542    -0.81900
O344        O  0.49558672  0.94915780  0.23643941    -0.84500
C345        C  0.49920547  0.96808784  0.20240142     1.03200
O346        O  0.53636733  0.00219833  0.19248787    -0.77300
O347        O  0.62927956  0.05084478  0.18852224    -0.77400
C348        C  0.63696652  0.02307362  0.17025243     1.03100
Cr349      Cr  0.63804156  0.99224595  0.25030088     1.93700
Cr350      Cr  0.53955211  0.94555736  0.27265595     1.93200
Cr351      Cr  0.58501550  0.03908414  0.23314546     1.39100
O352        O  0.58698967  0.99214050  0.25163529    -1.22500
O353        O  0.99500169  0.71431756  0.95436417    -0.84800
O354        O  0.95533785  0.62725816  0.97313595    -0.81800
C355        C  0.92813243  0.62239195  0.00153985     0.98700
O356        O  0.89289724  0.62285323  0.99378422    -0.81900
O357        O  0.83862456  0.64977263  0.95956762    -0.84500
C358        C  0.85667937  0.69127920  0.96832442     1.03200
O359        O  0.89402700  0.71913538  0.95314424    -0.77300
O360        O  0.97771831  0.75512070  0.91579584    -0.77500
C361        C  0.00285364  0.75186539  0.94226156     1.03200
O362        O  0.99019700  0.69677231  0.86684462    -0.84800
O363        O  0.94430743  0.60925830  0.88575583    -0.81800
C364        C  0.91511587  0.57134883  0.89797314     0.98700
O365        O  0.88558671  0.56749766  0.92370518    -0.81900
O366        O  0.83680912  0.60176503  0.88595726    -0.84500
C367        C  0.82718364  0.62921729  0.87037952     1.03200
O368        O  0.84971257  0.67069515  0.87934382    -0.77300
O369        O  0.93175018  0.70000365  0.84568915    -0.77400
C370        C  0.96815883  0.70174431  0.83834973     1.03100
Cr371      Cr  0.96727303  0.66186089  0.91996373     1.93700
Cr372      Cr  0.86706604  0.61382240  0.93915724     1.93200
Cr373      Cr  0.91354682  0.70785559  0.90012330     1.39100
O374        O  0.91591431  0.66112810  0.91964990    -1.22500
O375        O  0.62114241  0.65901813  0.03347066    -0.84800
O376        O  0.70872472  0.70823653  0.05039077    -0.81800
C377        C  0.74610850  0.73984560  0.06064052     0.98700
O378        O  0.74905674  0.76835502  0.08687845    -0.81900
O379        O  0.71255410  0.81445737  0.05012173    -0.84500
C380        C  0.68457045  0.82318147  0.03484975     1.03200
O381        O  0.64316936  0.79911637  0.04334473    -0.77300
O382        O  0.61758409  0.71690858  0.01040446    -0.77500
C383        C  0.61681051  0.68063402  0.00417521     1.03200
O384        O  0.60328555  0.65459961  0.12044566    -0.84800
O385        O  0.69160334  0.69705400  0.13751878    -0.81800
C386        C  0.69624324  0.72433663  0.16549794     0.98700
O387        O  0.69391020  0.75865268  0.15781033    -0.81900
O388        O  0.66359859  0.80992588  0.12395517    -0.84500
C389        C  0.62208700  0.79042013  0.13269254     1.03200
O390        O  0.59502341  0.75335063  0.11699364    -0.77300
O391        O  0.56224360  0.67051283  0.08085061    -0.77400
C392        C  0.56562682  0.64629898  0.10836872     1.03100
Cr393      Cr  0.65612113  0.68359784  0.08545329     1.93700
Cr394      Cr  0.70139923  0.78411876  0.10319712     1.93200
Cr395      Cr  0.60795948  0.73487994  0.06440538     1.39100
O396        O  0.65518394  0.73424902  0.08439481    -1.22500
C397        C  0.78538888  0.73960212  0.04244617    -0.04800
C398        C  0.79848110  0.75536029  0.00199197    -0.01900
C399        C  0.82229963  0.74006011  0.97809757     0.03100
C400        C  0.83292673  0.70842741  0.99433253    -0.04800
C401        C  0.82174992  0.69445100  0.03548240    -0.01900
C402        C  0.79886438  0.71064976  0.05958937     0.03100
C403        C  0.78498702  0.78528819  0.98421314     0.37800
C404        C  0.83282977  0.66257603  0.05281491     0.37700
C405        C  0.78742969  0.69611043  0.10181367     0.36200
C406        C  0.83277835  0.75427382  0.93568897     0.36200
N407        N  0.77857688  0.68488960  0.13561095    -0.38700
N408        N  0.84086950  0.76537822  0.90179300    -0.38700
N409        N  0.84129593  0.63687479  0.06672707    -0.38100
N410        N  0.77422843  0.80919136  0.97009629    -0.38100
C411        C  0.60419034  0.81246685  0.15937742    -0.04800
C412        C  0.61302775  0.81679443  0.20168568    -0.01900
C413        C  0.59832181  0.84040121  0.22627577     0.03100
C414        C  0.57613343  0.86130301  0.20845315    -0.04800
C415        C  0.56370333  0.85342963  0.16685132    -0.01900
C416        C  0.57738179  0.82867517  0.14247921     0.03100
C417        C  0.63737644  0.79714486  0.21999981     0.37800
C418        C  0.54028874  0.87391429  0.14819124     0.37700
C419        C  0.56602268  0.82208548  0.09938287     0.36200
C420        C  0.60664563  0.84388419  0.27003358     0.36200
N421        N  0.55688948  0.81671712  0.06502214    -0.38700
N422        N  0.61307275  0.84671914  0.30493676    -0.38700
N423        N  0.52177614  0.89040018  0.13326082    -0.38100
N424        N  0.65668655  0.78157746  0.23505298    -0.38100
C425        C  0.73223971  0.94196567  0.95977207    -0.04800
C426        C  0.74217647  0.94579820  0.00202509    -0.01900
C427        C  0.72666107  0.90681213  0.02644371     0.03100
C428        C  0.70137080  0.86382089  0.00883726    -0.04800
C429        C  0.69427239  0.85991476  0.96630326    -0.01900
C430        C  0.70979475  0.89875345  0.94180847     0.03100
C431        C  0.76506293  0.98955715  0.02117380     0.37800
C432        C  0.67123278  0.81586045  0.94771785     0.37700
C433        C  0.70233409  0.89409176  0.89794444     0.36200
C434        C  0.73451916  0.91099831  0.07024024     0.36200
N435        N  0.69630908  0.89030207  0.86300015    -0.38700
N436        N  0.74070865  0.91445668  0.10516378    -0.38700
N437        N  0.65303605  0.78074970  0.93282777    -0.38100
N438        N  0.78315100  0.02442496  0.03653277    -0.38100
C439        C  0.65577165  0.03172259  0.03849166    -0.04800
C440        C  0.64808815  0.06313376  0.05939115    -0.01900
C441        C  0.64387100  0.06149942  0.10221233     0.03100
C442        C  0.64533978  0.02709653  0.12506381    -0.04800
C443        C  0.65065480  0.99426489  0.10360481    -0.01900
C444        C  0.65281800  0.99504013  0.06061781     0.03100
C445        C  0.64185158  0.09612877  0.03706082     0.37800
C446        C  0.65596255  0.96025175  0.12496761     0.37700
C447        C  0.64878363  0.95618450  0.03958085     0.36200
C448        C  0.63830158  0.09611981  0.12191320     0.36200
N449        N  0.64396505  0.92445457  0.02307466    -0.38700
N450        N  0.63382640  0.12383098  0.13718809    -0.38700
N451        N  0.66115240  0.93354976  0.14153933    -0.38100
N452        N  0.63661195  0.12234671  0.01960715    -0.38100
C453        C  0.71026025  0.58440612  0.79407575    -0.04800
C454        C  0.70592014  0.56677298  0.83403724    -0.01900
C455        C  0.74438788  0.58016483  0.85837266     0.03100
C456        C  0.78735390  0.61198013  0.84331910    -0.04800
C457        C  0.79195931  0.62672033  0.80238929    -0.01900
C458        C  0.75380614  0.61192294  0.77754273     0.03100
C459        C  0.66193250  0.53731823  0.85131052     0.37800
C460        C  0.83598700  0.65722787  0.78566225     0.37700
C461        C  0.75944884  0.62497570  0.73465962     0.36200
C462        C  0.73944693  0.56321673  0.89988958     0.36200
N463        N  0.76384424  0.63511147  0.70041441    -0.38700
N464        N  0.73559940  0.54969301  0.93300725    -0.38700
N465        N  0.87087275  0.68165637  0.77196384    -0.38100
N466        N  0.62690515  0.51384640  0.86523238    -0.38100
C467        C  0.60552351  0.64960381  0.87585765    -0.04800
C468        C  0.57001295  0.65060914  0.89731309    -0.01900
C469        C  0.57268715  0.65791053  0.93986987     0.03100
C470        C  0.61011897  0.66377568  0.96183644    -0.04800
C471        C  0.64394603  0.65994313  0.94158547    -0.01900
C472        C  0.64274009  0.65473856  0.89877102     0.03100
C473        C  0.53064528  0.64520028  0.87636118     0.37800
C474        C  0.68034320  0.66114673  0.96449723     0.37700
C475        C  0.68120352  0.65648999  0.87896875     0.36200
C476        C  0.53612028  0.65827803  0.96154084     0.36200
N477        N  0.71251587  0.65883030  0.86369601    -0.38700
N478        N  0.50687972  0.65826155  0.97882046    -0.38700
N479        N  0.70936976  0.66061534  0.98143300    -0.38100
N480        N  0.49906940  0.64081899  0.86001009    -0.38100
C481        C  0.66672893  0.61945112  0.53995670    -0.04800
C482        C  0.66690691  0.58529977  0.56350008    -0.01900
C483        C  0.66103845  0.58392839  0.60615790     0.03100
C484        C  0.65404641  0.61663111  0.62606021    -0.04800
C485        C  0.65525230  0.65165434  0.60208892    -0.01900
C486        C  0.65961940  0.65183373  0.55917235     0.03100
C487        C  0.67306619  0.55114387  0.54357981     0.37800
C488        C  0.65503570  0.68945250  0.62108784     0.37700
C489        C  0.65736310  0.68611522  0.53522614     0.36200
C490        C  0.66448147  0.54956216  0.62900278     0.36200
N491        N  0.65441113  0.71349996  0.51738714    -0.38700
N492        N  0.66736643  0.52214531  0.64689055    -0.38700
N493        N  0.65627984  0.72046022  0.63590952    -0.38100
N494        N  0.67816227  0.52408244  0.52774061    -0.38100
C495        C  0.70499433  0.71722135  0.20805502    -0.04800
C496        C  0.74362451  0.75065427  0.22782009    -0.01900
C497        C  0.74933625  0.74716006  0.26998635     0.03100
C498        C  0.71548000  0.71132799  0.29290778    -0.04800
C499        C  0.67598111  0.67912003  0.27344376    -0.01900
C500        C  0.67173507  0.68088722  0.23080503     0.03100
C501        C  0.77783047  0.78840701  0.20464050     0.37800
C502        C  0.63914537  0.64418902  0.29681588     0.37700
C503        C  0.63300173  0.64495876  0.21079057     0.36200
C504        C  0.78953461  0.78110317  0.29006457     0.36200
N505        N  0.60203130  0.61493561  0.19621229    -0.38700
N506        N  0.82155070  0.80803466  0.30620092    -0.38700
N507        N  0.60839789  0.61639075  0.31411152    -0.38100
N508        N  0.80506755  0.81858143  0.18625370    -0.38100
C509        C  0.86547403  0.58513635  0.29419874    -0.04800
C510        C  0.84539793  0.56353188  0.33141974    -0.01900
C511        C  0.82117750  0.57844169  0.35524012     0.03100
C512        C  0.81690550  0.61534836  0.34199558    -0.04800
C513        C  0.83418439  0.63463421  0.30323248    -0.01900
C514        C  0.85821095  0.61952997  0.27947752     0.03100
C515        C  0.85140761  0.52718411  0.34602642     0.37800
C516        C  0.82710176  0.66992281  0.28754306     0.37700
C517        C  0.87684653  0.64046838  0.24020892     0.36200
C518        C  0.80304690  0.55741949  0.39459881     0.36200
N519        N  0.89143628  0.65714847  0.20880628    -0.38700
N520        N  0.78857402  0.54069635  0.42601864    -0.38700
N521        N  0.82143900  0.69797356  0.27477981    -0.38100
N522        N  0.85595551  0.49800821  0.35757940    -0.38100
C523        C  0.94431920  0.60544716  0.12970748    -0.04800
C524        C  0.90778422  0.57149279  0.10799564    -0.01900
C525        C  0.90296054  0.57681462  0.06590904     0.03100
C526        C  0.93603134  0.61488939  0.04460654    -0.04800
C527        C  0.97311363  0.64826483  0.06616995    -0.01900
C528        C  0.97586820  0.64475493  0.10894610     0.03100
C529        C  0.87445406  0.53143870  0.12924286     0.37800
C530        C  0.00917625  0.68592213  0.04469317     0.37700
C531        C  0.01091724  0.68207941  0.13128772     0.36200
C532        C  0.86427644  0.54254398  0.04431217     0.36200
N533        N  0.03843593  0.71295003  0.14834160    -0.38700
N534        N  0.83334309  0.51534179  0.02710900    -0.38700
N535        N  0.03939711  0.71572803  0.02867040    -0.38100
N536        N  0.84802260  0.49950246  0.14626053    -0.38100
C537        C  0.73954155  0.79340353  0.45913180    -0.04800
C538        C  0.70959096  0.80655761  0.44412940    -0.01900
C539        C  0.69523968  0.83007664  0.46948455     0.03100
C540        C  0.71091931  0.84085060  0.51009900    -0.04800
C541        C  0.74335974  0.83040901  0.52406510    -0.01900
C542        C  0.75726684  0.80648653  0.49879378     0.03100
C543        C  0.69132087  0.79333708  0.40329686     0.37800
C544        C  0.76014422  0.84135182  0.56556129     0.37700
C545        C  0.78719974  0.79215430  0.51472524     0.36200
C546        C  0.66399525  0.84271038  0.45369790     0.36200
N547        N  0.81086525  0.78048906  0.52747689    -0.38700
N548        N  0.63907048  0.85253361  0.44055293    -0.38700
N549        N  0.77350061  0.84999416  0.59866676    -0.38100
N550        N  0.67664821  0.78280042  0.37077407    -0.38100
C551        C  0.60416422  0.78878010  0.65914278    -0.04800
C552        C  0.57847314  0.74625122  0.64065435    -0.01900
C553        C  0.56343687  0.70645152  0.66400591     0.03100
C554        C  0.57349636  0.70902132  0.70614100    -0.04800
C555        C  0.59381526  0.75147253  0.72539971    -0.01900
C556        C  0.60992592  0.79116520  0.70192599     0.03100
C557        C  0.56976929  0.74347394  0.59706357     0.37800
C558        C  0.59821221  0.75416157  0.76961798     0.37700
C559        C  0.63258063  0.83444710  0.72189491     0.36200
C560        C  0.54081860  0.66322908  0.64393885     0.36200
N561        N  0.65054435  0.86876974  0.73818578    -0.38700
N562        N  0.52284932  0.62878478  0.62784914    -0.38700
N563        N  0.60124900  0.75604224  0.80492352    -0.38100
N564        N  0.56280286  0.74138647  0.56227721    -0.38100
C565        C  0.62494183  0.94761826  0.46012443    -0.04800
C566        C  0.66019362  0.98215358  0.43768190    -0.01900
C567        C  0.65661026  0.98460506  0.39508611     0.03100
C568        C  0.61595828  0.95451061  0.37511119    -0.04800
C569        C  0.58017832  0.92018169  0.39859837    -0.01900
C570        C  0.58506278  0.91682661  0.44077441     0.03100
C571        C  0.70074163  0.01499312  0.45800521     0.37800
C572        C  0.53827054  0.88698959  0.38024853     0.37700
C573        C  0.54877732  0.88149133  0.46464851     0.36200
C574        C  0.69606011  0.01668803  0.37231253     0.36200
N575        N  0.52009078  0.85338485  0.48376090    -0.38700
N576        N  0.72792372  0.04188099  0.35445903    -0.38700
N577        N  0.50480690  0.86020551  0.36606028    -0.38100
N578        N  0.73334826  0.04233787  0.47293547    -0.38100
C579        C  0.70139237  0.98819414  0.70743874    -0.04800
C580        C  0.66229654  0.97357211  0.73082952    -0.01900
C581        C  0.66536750  0.98545457  0.77215323     0.03100
C582        C  0.70796632  0.00998594  0.79076437    -0.04800
C583        C  0.74720164  0.02557007  0.76633034    -0.01900
C584        C  0.74366899  0.01526907  0.72458030     0.03100
C585        C  0.61874237  0.94438226  0.71304053     0.37800
C586        C  0.79160475  0.05135151  0.78351843     0.37700
C587        C  0.78364169  0.03104992  0.69946912     0.36200
C588        C  0.62428909  0.97068013  0.79522442     0.36200
N589        N  0.81547809  0.04371315  0.67951552    -0.38700
N590        N  0.59139625  0.95911383  0.81325265    -0.38700
N591        N  0.82739416  0.07105158  0.79659362    -0.38100
N592        N  0.58361341  0.92045621  0.69997844    -0.38100
C593        C  0.86211482  0.71348658  0.49576025    -0.04800
C594        C  0.90373202  0.75149533  0.48470209    -0.01900
C595        C  0.94140011  0.76616960  0.51030802     0.03100
C596        C  0.93831274  0.74215611  0.54622982    -0.04800
C597        C  0.89607186  0.70684569  0.55906062    -0.01900
C598        C  0.85799551  0.69306089  0.53429219     0.03100
C599        C  0.90886019  0.77384066  0.44569737     0.37800
C600        C  0.89223954  0.68340729  0.59716725     0.37700
C601        C  0.81460141  0.65824909  0.54884130     0.36200
C602        C  0.98393544  0.80480328  0.49887658     0.36200
N603        N  0.78011657  0.63078813  0.56106403    -0.38700
N604        N  0.01771252  0.83600730  0.49001639    -0.38700
N605        N  0.88910233  0.66464091  0.62752363    -0.38100
N606        N  0.91302411  0.79157031  0.41451602    -0.38100
C607        C  0.03658876  0.67121554  0.46124764    -0.04800
C608        C  0.04329502  0.70286695  0.43032917    -0.01900
C609        C  0.04075531  0.69145051  0.38863488     0.03100
C610        C  0.02802163  0.64702209  0.37740601    -0.04800
C611        C  0.01320562  0.61393187  0.40877244    -0.01900
C612        C  0.02049338  0.62632387  0.45025452     0.03100
C613        C  0.05113787  0.74693363  0.44131363     0.37800
C614        C  0.98554264  0.56684318  0.39930338     0.37700
C615        C  0.01305366  0.59281935  0.48096928     0.36200
C616        C  0.05013934  0.72553288  0.35790056     0.36200
N617        N  0.00744706  0.56539012  0.50458086    -0.38700
N618        N  0.05715154  0.75288341  0.33367287    -0.38700
N619        N  0.96149489  0.52919718  0.39329697    -0.38100
N620        N  0.05675951  0.78193495  0.44957269    -0.38100
C621        C  0.98463619  0.71067902  0.79559128    -0.04800
C622        C  0.98553574  0.67675658  0.77245601    -0.01900
C623        C  0.99318269  0.68213469  0.72986068     0.03100
C624        C  0.00254832  0.72258190  0.71034222    -0.04800
C625        C  0.00231028  0.75686919  0.73370581    -0.01900
C626        C  0.99269206  0.75062378  0.77599037     0.03100
C627        C  0.97775639  0.63563074  0.79193367     0.37800
C628        C  0.01045233  0.79806107  0.71397994     0.37700
C629        C  0.99112141  0.78543668  0.79946451     0.36200
C630        C  0.99098766  0.64540321  0.70665900     0.36200
N631        N  0.98971814  0.81308135  0.81821058    -0.38700
N632        N  0.98796199  0.61463248  0.68976502    -0.38700
N633        N  0.01692572  0.83088613  0.69820180    -0.38100
N634        N  0.97225180  0.60240821  0.80596867    -0.38100
C635        C  0.38545637  0.44515313  0.62164109    -0.04800
C636        C  0.42291186  0.43895272  0.61922664    -0.01900
C637        C  0.46287572  0.46777362  0.64013087     0.03100
C638        C  0.46535545  0.50207189  0.66559283    -0.04800
C639        C  0.42914920  0.51063169  0.66495557    -0.01900
C640        C  0.38954801  0.48237303  0.64295121     0.03100
C641        C  0.41957057  0.40090459  0.59716276     0.37800
C642        C  0.43212864  0.54833342  0.68719626     0.37700
C643        C  0.35180495  0.48962629  0.64468424     0.36200
C644        C  0.50036782  0.46016940  0.63676079     0.36200
N645        N  0.32156821  0.49525911  0.64604364    -0.38700
N646        N  0.53028057  0.45416855  0.63368156    -0.38700
N647        N  0.43429273  0.57831457  0.70492451    -0.38100
N648        N  0.41694150  0.37023401  0.58033259    -0.38100
C649        C  0.45530043  0.05962263  0.38453895    -0.04800
C650        C  0.45034152  0.01673331  0.39031401    -0.01900
C651        C  0.47718247  0.00394367  0.36826613     0.03100
C652        C  0.50864474  0.03360966  0.33909335    -0.04800
C653        C  0.51723757  0.07857073  0.33732942    -0.01900
C654        C  0.49061283  0.09137571  0.36008656     0.03100
C655        C  0.41517760  0.98428887  0.41700505     0.37800
C656        C  0.55276516  0.11176860  0.31153381     0.37700
C657        C  0.49747229  0.13628499  0.35622503     0.36200
C658        C  0.46983386  0.95905097  0.37419193     0.36200
N659        N  0.50293956  0.17212539  0.35331212    -0.38700
N660        N  0.46370251  0.92320775  0.37933455    -0.38700
N661        N  0.58093084  0.13836154  0.29087384    -0.38100
N662        N  0.38703019  0.95796991  0.43784902    -0.38100
C663        C  0.14437623  0.86321998  0.49910745    -0.04800
C664        C  0.14410740  0.90406822  0.50382428    -0.01900
C665        C  0.16859022  0.94036227  0.47646937     0.03100
C666        C  0.19359107  0.93638437  0.44446293    -0.04800
C667        C  0.18975768  0.89428272  0.43695462    -0.01900
C668        C  0.16576780  0.85806429  0.46427866     0.03100
C669        C  0.12192443  0.91055219  0.53861045     0.37800
C670        C  0.21272300  0.88902709  0.40202653     0.37700
C671        C  0.16396046  0.81578912  0.45662523     0.36200
C672        C  0.17117981  0.98313639  0.48313617     0.36200
N673        N  0.16267928  0.78219843  0.45031338    -0.38700
N674        N  0.17335946  0.01733749  0.48820111    -0.38700
N675        N  0.23086883  0.88460344  0.37418014    -0.38100
N676        N  0.10438979  0.91608442  0.56632659    -0.38100
C677        C  0.24862847  0.19007294  0.54410925    -0.04800
C678        C  0.28494939  0.18426954  0.55515460    -0.01900
C679        C  0.29990593  0.16193402  0.52878545     0.03100
C680        C  0.27820953  0.14422921  0.49111026    -0.04800
C681        C  0.23949962  0.14682673  0.48169600    -0.01900
C682        C  0.22493984  0.16962508  0.50804028     0.03100
C683        C  0.30814642  0.20289318  0.59334325     0.37800
C684        C  0.21628833  0.12892376  0.44339378     0.37700
C685        C  0.18687889  0.17415977  0.49700025     0.36200
C686        C  0.33801111  0.15766006  0.54043218     0.36200
N687        N  0.15628560  0.17749932  0.48830953    -0.38700
N688        N  0.36854042  0.15447535  0.54977679    -0.38700
N689        N  0.19784280  0.11474503  0.41280518    -0.38100
N690        N  0.32663759  0.21738949  0.62385401    -0.38100
C691        C  0.86895667  0.27009909  0.78843470    -0.04800
C692        C  0.82834709  0.26240536  0.80577022    -0.01900
C693        C  0.80117174  0.22244634  0.82850450     0.03100
C694        C  0.81604267  0.19145950  0.83628452    -0.04800
C695        C  0.85605006  0.19893807  0.81751988    -0.01900
C696        C  0.88012437  0.23591574  0.79130798     0.03100
C697        C  0.81558630  0.29627404  0.80179174     0.37800
C698        C  0.87609100  0.17235501  0.82909080     0.37700
C699        C  0.91788362  0.23961117  0.76829711     0.36200
C700        C  0.75834056  0.21375196  0.84429787     0.36200
N701        N  0.94780504  0.24243798  0.74986275    -0.38700
N702        N  0.72406518  0.20684116  0.85665756    -0.38700
N703        N  0.89313229  0.15236972  0.83906524    -0.38100
N704        N  0.80544348  0.32337329  0.79859350    -0.38100
C705        C  0.12110456  0.40566770  0.70106404    -0.04800
C706        C  0.15142452  0.39604161  0.72133467    -0.01900
C707        C  0.17604893  0.38010632  0.69895400     0.03100
C708        C  0.16997878  0.37282874  0.65621227    -0.04800
C709        C  0.14260802  0.38615541  0.63567496    -0.01900
C710        C  0.11902214  0.40302370  0.65781275     0.03100
C711        C  0.15647587  0.40147907  0.76525651     0.37800
C712        C  0.13811017  0.38208865  0.59155492     0.37700
C713        C  0.09160897  0.41711741  0.63604169     0.36200
C714        C  0.20724633  0.37064255  0.71993266     0.36200
N715        N  0.06977866  0.42850884  0.61890473    -0.38700
N716        N  0.23241657  0.36336280  0.73655278    -0.38700
N717        N  0.13418804  0.37911904  0.55635472    -0.38100
N718        N  0.16100973  0.40635522  0.80029539    -0.38100
C719        C  0.03867129  0.53180325  0.67297118    -0.04800
C720        C  0.00809401  0.53193098  0.64436940    -0.01900
C721        C  0.01916548  0.57063476  0.62109445     0.03100
C722        C  0.06173031  0.60966518  0.62455348    -0.04800
C723        C  0.09367799  0.60890929  0.65065612    -0.01900
C724        C  0.08244624  0.57017209  0.67460034     0.03100
C725        C  0.96446087  0.49252786  0.63887589     0.37800
C726        C  0.13669409  0.64936683  0.65566117     0.37700
C727        C  0.11552244  0.57124947  0.70243841     0.36200
C728        C  0.98480025  0.57146983  0.59624642     0.36200
N729        N  0.14205815  0.57214809  0.72450773    -0.38700
N730        N  0.95693169  0.57218360  0.57734846    -0.38700
N731        N  0.17087784  0.68174482  0.65991928    -0.38100
N732        N  0.92935053  0.46166885  0.63404877    -0.38100
C733        C  0.94828842  0.48462768  0.83189728    -0.04800
C734        C  0.90621347  0.48183681  0.82555882    -0.01900
C735        C  0.89212256  0.50587234  0.85084719     0.03100
C736        C  0.91970711  0.53316161  0.88258927    -0.04800
C737        C  0.95991989  0.53332403  0.89090524    -0.01900
C738        C  0.97432474  0.50968884  0.86567739     0.03100
C739        C  0.87861699  0.45714479  0.79105506     0.37800
C740        C  0.98761556  0.55956289  0.92485772     0.37700
C741        C  0.01624680  0.51156559  0.87466779     0.36200
C742        C  0.85054805  0.50500004  0.84258433     0.36200
N743        N  0.04967976  0.51310591  0.88204864    -0.38700
N744        N  0.81736478  0.50438319  0.83621418    -0.38700
N745        N  0.00975178  0.58038594  0.95191223    -0.38100
N746        N  0.85657296  0.43766462  0.76346015    -0.38100
C747        C  0.41053896  0.27075093  0.28549794    -0.04800
C748        C  0.43572336  0.27285137  0.31999604    -0.01900
C749        C  0.42260558  0.23408901  0.34421423     0.03100
C750        C  0.38329179  0.19318520  0.33448158    -0.04800
C751        C  0.36177352  0.19003030  0.29691253    -0.01900
C752        C  0.37536809  0.22867706  0.27255571     0.03100
C753        C  0.47320689  0.31571888  0.33207813     0.37800
C754        C  0.32581201  0.14709629  0.28291206     0.37700
C755        C  0.35161887  0.22553681  0.23504285     0.36200
C756        C  0.44833937  0.23727024  0.38026116     0.36200
N757        N  0.33247777  0.22246827  0.20511589    -0.38700
N758        N  0.46921486  0.23983558  0.40880626    -0.38700
N759        N  0.29734075  0.11320816  0.27088879    -0.38100
N760        N  0.50306022  0.35005004  0.34149710    -0.38100
C761        C  0.31774949  0.35631362  0.46111362    -0.04800
C762        C  0.28417857  0.33524616  0.43100790    -0.01900
C763        C  0.29491146  0.34421822  0.38921826     0.03100
C764        C  0.34005708  0.36803182  0.37667405    -0.04800
C765        C  0.37387115  0.38176927  0.40674922    -0.01900
C766        C  0.36296789  0.37883492  0.44867457     0.03100
C767        C  0.23885832  0.30203405  0.44256561     0.37800
C768        C  0.41969542  0.39669577  0.39496663     0.37700
C769        C  0.39860031  0.40070860  0.47824095     0.36200
C770        C  0.25907058  0.33114278  0.36000085     0.36200
N771        N  0.42780895  0.41905588  0.50096353    -0.38700
N772        N  0.22975496  0.32116611  0.33761838    -0.38700
N773        N  0.45615175  0.40736966  0.38628676    -0.38100
N774        N  0.20285666  0.27439438  0.45090770    -0.38100
C775        C  0.60740150  0.53612031  0.37601009    -0.04800
C776        C  0.56597845  0.53285199  0.38544568    -0.01900
C777        C  0.52850699  0.50872703  0.35989907     0.03100
C778        C  0.53102622  0.48509520  0.32561372    -0.04800
C779        C  0.57207832  0.48631814  0.31756419    -0.01900
C780        C  0.61007289  0.51206419  0.34242847     0.03100
C781        C  0.56244293  0.55618592  0.42087448     0.37800
C782        C  0.57673592  0.46437811  0.28164326     0.37700
C783        C  0.65279324  0.51628148  0.33195266     0.36200
C784        C  0.48771835  0.50935700  0.36867526     0.36200
N785        N  0.68696758  0.51982449  0.32363817    -0.38700
N786        N  0.45535145  0.51023699  0.37559453    -0.38700
N787        N  0.58069987  0.44717450  0.25289734    -0.38100
N788        N  0.55937865  0.57455891  0.44915181    -0.38100
C789        C  0.47655307  0.52653887  0.17321555    -0.04800
C790        C  0.49102931  0.52396887  0.13338666    -0.01900
C791        C  0.51567157  0.56331239  0.10960701     0.03100
C792        C  0.52655061  0.60556377  0.12561849    -0.04800
C793        C  0.50920032  0.60774538  0.16410133    -0.01900
C794        C  0.48408141  0.56837343  0.18776647     0.03100
C795        C  0.48102918  0.48093808  0.11695051     0.37800
C796        C  0.51967797  0.65098116  0.18039214     0.37700
C797        C  0.46883775  0.57150642  0.22837770     0.36200
C798        C  0.53168127  0.56062633  0.06922882     0.36200
N799        N  0.45669302  0.57387909  0.26081365    -0.38700
N800        N  0.54422337  0.55834830  0.03695108    -0.38700
N801        N  0.52803922  0.68548559  0.19336677    -0.38100
N802        N  0.47314735  0.44675191  0.10353585    -0.38100
C803        C  0.92126784  0.38003950  0.38239797    -0.04800
C804        C  0.96410122  0.41849595  0.38652771    -0.01900
C805        C  0.97804110  0.45577222  0.36036780     0.03100
C806        C  0.94825600  0.45645061  0.33103145    -0.04800
C807        C  0.90377661  0.41919010  0.32952378    -0.01900
C808        C  0.89069175  0.38106189  0.35480693     0.03100
C809        C  0.99507455  0.41883550  0.41667263     0.37800
C810        C  0.87199167  0.41821385  0.30011433     0.37700
C811        C  0.84678744  0.34161452  0.35050519     0.36200
C812        C  0.02345164  0.49319182  0.36397789     0.36200
N813        N  0.81178018  0.31008990  0.34708274    -0.38700
N814        N  0.05972793  0.52278945  0.36693697    -0.38700
N815        N  0.84653440  0.41734708  0.27671101    -0.38100
N816        N  0.02009257  0.41958712  0.44052178    -0.38100
C817        C  0.04965450  0.25162861  0.45423571    -0.04800
C818        C  0.04789297  0.22248979  0.48537444    -0.01900
C819        C  0.08585717  0.23454386  0.51011451     0.03100
C820        C  0.12578904  0.27668808  0.50452359    -0.04800
C821        C  0.12824204  0.30402318  0.47108634    -0.01900
C822        C  0.09069870  0.29116015  0.44582888     0.03100
C823        C  0.00582184  0.18195641  0.49421808     0.37800
C824        C  0.16943262  0.34552512  0.46229658     0.37700
C825        C  0.09378502  0.31956115  0.41163275     0.36200
C826        C  0.08237858  0.20441785  0.54282566     0.36200
N827        N  0.09640927  0.34216100  0.38427454    -0.38700
N828        N  0.07947398  0.18010229  0.56871463    -0.38700
N829        N  0.20228993  0.37856427  0.45518497    -0.38100
N830        N  0.97217269  0.14978610  0.50137958    -0.38100
C831        C  0.94428956  0.32139617  0.54207188    -0.04800
C832        C  0.97195423  0.31299877  0.56780582    -0.01900
C833        C  0.97352368  0.32126046  0.61024832     0.03100
C834        C  0.94755110  0.33837524  0.62731779    -0.04800
C835        C  0.91890157  0.34555231  0.60145348    -0.01900
C836        C  0.91817492  0.33815981  0.55898492     0.03100
C837        C  0.99834450  0.29496252  0.55098656     0.37800
C838        C  0.88726391  0.35688197  0.61883902     0.37700
C839        C  0.89003045  0.34730421  0.53252183     0.36200
C840        C  0.00152064  0.31133410  0.63605520     0.36200
N841        N  0.86787900  0.35483707  0.51128976    -0.38700
N842        N  0.02367194  0.30263370  0.65607346    -0.38700
N843        N  0.86132938  0.36501216  0.63261185    -0.38100
N844        N  0.02000587  0.28069886  0.53873979    -0.38100
C845        C  0.70963079  0.11878637  0.29775252    -0.04800
C846        C  0.70511526  0.12134937  0.34058962    -0.01900
C847        C  0.74352852  0.14593211  0.36533652     0.03100
C848        C  0.78694208  0.16645313  0.34788345    -0.04800
C849        C  0.79130277  0.16576366  0.30498078    -0.01900
C850        C  0.75293455  0.14282139  0.28006989     0.03100
C851        C  0.66143821  0.09564148  0.35972206     0.37800
C852        C  0.83533644  0.18892873  0.28626121     0.37700
C853        C  0.75801784  0.14407973  0.23589485     0.36200
C854        C  0.73840718  0.14902327  0.40907190     0.36200
N855        N  0.76192135  0.14525760  0.20065459    -0.38700
N856        N  0.73428225  0.15180009  0.44391108    -0.38700
N857        N  0.87026511  0.20732600  0.27088139    -0.38100
N858        N  0.62665585  0.07464103  0.37501285    -0.38100
C859        C  0.84398249  0.12430917  0.50138314    -0.04800
C860        C  0.82570996  0.12737590  0.53906819    -0.01900
C861        C  0.80311864  0.08927238  0.56463606     0.03100
C862        C  0.79795125  0.04762465  0.55248176    -0.04800
C863        C  0.81971582  0.04557005  0.51680670    -0.01900
C864        C  0.84247403  0.08362395  0.49116271     0.03100
C865        C  0.82892796  0.16933377  0.55111320     0.37800
C866        C  0.81499034  0.00302538  0.50459132     0.37700
C867        C  0.86039169  0.07934419  0.45231739     0.36200
C868        C  0.78229784  0.09221759  0.60218963     0.36200
N869        N  0.87444302  0.07593100  0.42120621    -0.38700
N870        N  0.76597498  0.09527938  0.63203884    -0.38700
N871        N  0.81113290  0.96905876  0.49485148    -0.38100
N872        N  0.83120520  0.20265163  0.56074991    -0.38100
C873        C  0.50859604  0.46520582  0.83433764    -0.04800
C874        C  0.51652978  0.42853881  0.83047737    -0.01900
C875        C  0.49193096  0.38908564  0.85436662     0.03100
C876        C  0.45961711  0.38580427  0.88243512    -0.04800
C877        C  0.45610211  0.42419559  0.89032846    -0.01900
C878        C  0.48055760  0.46369569  0.86680526     0.03100
C879        C  0.54967555  0.43069509  0.80186294     0.37800
C880        C  0.42509888  0.42225904  0.92143194     0.37700
C881        C  0.47472705  0.50167789  0.87541316     0.36200
C882        C  0.49798870  0.35084179  0.84850442     0.36200
N883        N  0.46994455  0.53178633  0.88266186    -0.38700
N884        N  0.50284128  0.32032327  0.84403361    -0.38700
N885        N  0.40040178  0.42121903  0.94596610    -0.38100
N886        N  0.57610725  0.43222430  0.77909317    -0.38100
C887        C  0.26898318  0.27640066  0.71081012    -0.04800
C888        C  0.23335480  0.25948922  0.73992993    -0.01900
C889        C  0.24216894  0.26027207  0.78200930     0.03100
C890        C  0.28595962  0.27574780  0.79548401    -0.04800
C891        C  0.32137395  0.29110901  0.76696344    -0.01900
C892        C  0.31321884  0.29244607  0.72487615     0.03100
C893        C  0.18710409  0.23927169  0.72706751     0.37800
C894        C  0.36611177  0.30420289  0.78085490     0.37700
C895        C  0.35083252  0.31087323  0.69661511     0.36200
C896        C  0.20574552  0.24311556  0.81160896     0.36200
N897        N  0.38110087  0.32558472  0.67443891    -0.38700
N898        N  0.17688808  0.22945313  0.83529971    -0.38700
N899        N  0.40178181  0.31422277  0.79157073    -0.38100
N900        N  0.15015528  0.22306302  0.71697969    -0.38100
C901        C  0.37943063  0.31591123  0.04184849    -0.04800
C902        C  0.35872942  0.33874410  0.05850586    -0.01900
C903        C  0.36085109  0.34679110  0.10084749     0.03100
C904        C  0.38362118  0.33224487  0.12670301    -0.04800
C905        C  0.40505687  0.31035787  0.11032014    -0.01900
C906        C  0.40335348  0.30244682  0.06803177     0.03100
C907        C  0.33463097  0.35359876  0.03257434     0.37800
C908        C  0.42976225  0.29686155  0.13700956     0.37700
C909        C  0.42738314  0.28142576  0.05166524     0.36200
C910        C  0.34008268  0.37078940  0.11758775     0.36200
N911        N  0.44636045  0.26448472  0.03870428    -0.38700
N912        N  0.32330079  0.39011527  0.12998712    -0.38700
N913        N  0.44949382  0.28615765  0.15824589    -0.38100
N914        N  0.31559155  0.36587037  0.01217245    -0.38100
C915        C  0.84935760  0.14622279  0.00351425    -0.04800
C916        C  0.88386740  0.13503856  0.00318452    -0.01900
C917        C  0.92429969  0.16139376  0.02479884     0.03100
C918        C  0.93028517  0.19822266  0.04794515    -0.04800
C919        C  0.89352490  0.20523274  0.05315896    -0.01900
C920        C  0.85340495  0.17950311  0.03120396     0.03100
C921        C  0.87805269  0.09625936  0.98083686     0.37800
C922        C  0.89757191  0.24042714  0.08015148     0.37700
C923        C  0.81733182  0.18904612  0.03621567     0.36200
C924        C  0.96072441  0.15225286  0.02126987     0.36200
N925        N  0.78860715  0.19663137  0.04053941    -0.38700
N926        N  0.98983766  0.14503312  0.01852018    -0.38700
N927        N  0.90055470  0.26850806  0.10148494    -0.38100
N928        N  0.87348170  0.06517627  0.96324760    -0.38100
C929        C  0.03200809  0.37565299  0.87550845    -0.04800
C930        C  0.00947861  0.38635881  0.90578675    -0.01900
C931        C  0.01543521  0.38124192  0.94780517     0.03100
C932        C  0.04198932  0.36278948  0.95997157    -0.04800
C933        C  0.05602623  0.34330585  0.92945450    -0.01900
C934        C  0.05269926  0.35114275  0.88751811     0.03100
C935        C  0.97624805  0.39802250  0.89389891     0.37800
C936        C  0.06887007  0.31070770  0.94075886     0.37700
C937        C  0.06940896  0.33264333  0.85711466     0.36200
C938        C  0.99218730  0.39290483  0.97792802     0.36200
N939        N  0.08223488  0.31712808  0.83308991    -0.38700
N940        N  0.97263287  0.40143017  0.00157466    -0.38700
N941        N  0.07739782  0.28326062  0.94891043    -0.38100
N942        N  0.94840490  0.40571032  0.88532413    -0.38100
C943        C  0.04085293  0.50175204  0.17808065    -0.04800
C944        C  0.06154871  0.48040289  0.19774944    -0.01900
C945        C  0.07524599  0.45463027  0.17496526     0.03100
C946        C  0.07070840  0.45174155  0.13194336    -0.04800
C947        C  0.05420285  0.47680609  0.11191082    -0.01900
C948        C  0.03761265  0.50018392  0.13495244     0.03100
C949        C  0.06703871  0.48319068  0.24180619     0.37800
C950        C  0.05408849  0.47837767  0.06765346     0.37700
C951        C  0.01576557  0.52122589  0.11440436     0.36200
C952        C  0.09217472  0.42912210  0.19602458     0.36200
N953        N  0.99788579  0.53759677  0.09806112    -0.38700
N954        N  0.10525955  0.40836488  0.21264450    -0.38700
N955        N  0.05516856  0.48101814  0.03231204    -0.38100
N956        N  0.07181345  0.48527158  0.27692691    -0.38100
C957        C  0.99564645  0.27209883  0.20712192    -0.04800
C958        C  0.99595482  0.23757479  0.23032713    -0.01900
C959        C  0.98736006  0.23418884  0.27273599     0.03100
C960        C  0.98030124  0.26637247  0.29262470    -0.04800
C961        C  0.97997386  0.30080104  0.26946628    -0.01900
C962        C  0.98570701  0.30248651  0.22665156     0.03100
C963        C  0.00380546  0.20461931  0.21038072     0.37800
C964        C  0.97344062  0.33463380  0.28912262     0.37700
C965        C  0.98091275  0.33546794  0.20302596     0.36200
C966        C  0.98618309  0.19770887  0.29605097     0.36200
N967        N  0.97582888  0.36142466  0.18493972    -0.38700
N968        N  0.98501920  0.16853027  0.31462441    -0.38700
N969        N  0.96904679  0.36290289  0.30313710    -0.38100
N970        N  0.01009347  0.17835599  0.19450737    -0.38100
C971        C  0.26709453  0.38603402  0.21463407    -0.04800
C972        C  0.22859981  0.34270228  0.21647066    -0.01900
C973        C  0.18995263  0.33238896  0.19371308     0.03100
C974        C  0.18978055  0.36432932  0.16646907    -0.04800
C975        C  0.22719675  0.40889206  0.16719161    -0.01900
C976        C  0.26530724  0.41960571  0.19148265     0.03100
C977        C  0.22946120  0.30745080  0.24015366     0.37800
C978        C  0.22807667  0.44366370  0.14151788     0.37700
C979        C  0.30419823  0.46430590  0.18999296     0.36200
C980        C  0.15030361  0.28857110  0.19883070     0.36200
N981        N  0.33531296  0.49992017  0.18880173    -0.38700
N982        N  0.11881387  0.25362224  0.20330679    -0.38700
N983        N  0.22896879  0.47159337  0.12113710    -0.38100
N984        N  0.23025446  0.27900094  0.25828107    -0.38100
C985        C  0.20497685  0.25557697  0.95919314    -0.04800
C986        C  0.17639906  0.22618979  0.98981658    -0.01900
C987        C  0.14886464  0.23752854  0.01320513     0.03100
C988        C  0.15067090  0.27925956  0.00700614    -0.04800
C989        C  0.17819927  0.30771930  0.97505242    -0.01900
C990        C  0.20442219  0.29556104  0.95101705     0.03100
C991        C  0.17772686  0.18577310  0.99913315     0.37800
C992        C  0.17997940  0.34991200  0.96669590     0.37700
C993        C  0.23228529  0.32526133  0.91838357     0.36200
C994        C  0.12105045  0.20732251  0.04548775     0.36200
N995        N  0.25435749  0.34904164  0.89239256    -0.38700
N996        N  0.09886894  0.18310534  0.07119400    -0.38700
N997        N  0.18151974  0.38359225  0.95989400    -0.38100
N998        N  0.17909355  0.15368787  0.00661372    -0.38100
C999        C  0.27555358  0.86294273  0.70354816    -0.04800
C1000       C  0.27887937  0.85789706  0.66099723    -0.01900
C1001       C  0.23973973  0.83623103  0.63695091     0.03100
C1002       C  0.19713528  0.81975287  0.65519031    -0.04800
C1003       C  0.19362860  0.82150819  0.69799402    -0.01900
C1004       C  0.23258835  0.84226503  0.72213439     0.03100
C1005       C  0.32241478  0.87740700  0.64144677     0.37800
C1006       C  0.14992774  0.80206773  0.71726985     0.37700
C1007       C  0.22838904  0.84252083  0.76635372     0.36200
C1008       C  0.24339885  0.83285943  0.59300532     0.36200
N1009       N  0.22482530  0.84245125  0.80158013    -0.38700
N1010       N  0.24627491  0.83021133  0.55795813    -0.38700
N1011       N  0.11523057  0.78667969  0.73295300    -0.38100
N1012       N  0.35713236  0.89289719  0.62577858    -0.38100
C1013       C  0.36977915  0.02836834  0.62203919    -0.04800
C1014       C  0.40600860  0.06318646  0.59922678    -0.01900
C1015       C  0.40237840  0.06689749  0.55682037     0.03100
C1016       C  0.36341650  0.03596884  0.53629377    -0.04800
C1017       C  0.32783251  0.00082078  0.55803674    -0.01900
C1018       C  0.33017048  0.99791944  0.60089084     0.03100
C1019       C  0.44706299  0.09669719  0.61853243     0.37800
C1020       C  0.28811271  0.96806441  0.53672093     0.37700
C1021       C  0.29032810  0.96521404  0.62279357     0.36200
C1022       C  0.43891862  0.10326637  0.53400156     0.36200
N1023       N  0.25809807  0.93966511  0.63992720    -0.38700
N1024       N  0.46776292  0.13227902  0.51582734    -0.38700
N1025       N  0.25609174  0.94081735  0.52089553    -0.38100
N1026       N  0.47984669  0.12380101  0.63353682    -0.38100
C1027       C  0.37799385  0.17218368  0.83894446    -0.04800
C1028       C  0.40930668  0.16052858  0.85362560    -0.01900
C1029       C  0.42232124  0.13527196  0.82903033     0.03100
C1030       C  0.40467116  0.12217584  0.78922749    -0.04800
C1031       C  0.37771600  0.13875345  0.77304702    -0.01900
C1032       C  0.36336994  0.16238414  0.79813160     0.03100
C1033       C  0.42589734  0.17192241  0.89514969     0.37800
C1034       C  0.36492375  0.13179724  0.73022962     0.37700
C1035       C  0.33348594  0.17654648  0.78181173     0.36200
C1036       C  0.45078108  0.11973752  0.84611105     0.36200
N1037       N  0.30949316  0.18749289  0.76847011    -0.38700
N1038       N  0.47337726  0.10726303  0.85988522    -0.38700
N1039       N  0.35504640  0.12653952  0.69603399    -0.38100
N1040       N  0.43909857  0.18104219  0.92826376    -0.38100
C1041       C  0.52764935  0.03375208  0.82050713    -0.04800
C1042       C  0.57071009  0.05198060  0.80224194    -0.01900
C1043       C  0.60961336  0.07064142  0.82665070     0.03100
C1044       C  0.60603196  0.06870440  0.86970640    -0.04800
C1045       C  0.56314943  0.05055322  0.88802167    -0.01900
C1046       C  0.52432071  0.03384961  0.86364954     0.03100
C1047       C  0.57503361  0.04810810  0.75843502     0.37800
C1048       C  0.55881253  0.04787675  0.93228807     0.37700
C1049       C  0.48101607  0.01659198  0.88330060     0.36200
C1050       C  0.65322214  0.08895135  0.80731990     0.36200
N1051       N  0.44662863  0.00287897  0.89921721    -0.38700
N1052       N  0.68793298  0.10364319  0.79181067    -0.38700
N1053       N  0.55513167  0.04529671  0.96756457    -0.38100
N1054       N  0.57839893  0.04445467  0.72359595    -0.38100
C1055       C  0.48169775  0.95612279  0.65782945    -0.04800
C1056       C  0.47289963  0.91104935  0.65760640    -0.01900
C1057       C  0.50123405  0.89959357  0.63591916     0.03100
C1058       C  0.53772715  0.93249985  0.61334573    -0.04800
C1059       C  0.54260602  0.97551600  0.60869991    -0.01900
C1060       C  0.51533412  0.98756397  0.63114633     0.03100
C1061       C  0.43496301  0.87613834  0.67990890     0.37800
C1062       C  0.57696790  0.00811347  0.58148708     0.37700
C1063       C  0.52438780  0.03333807  0.62837406     0.36200
C1064       C  0.49465045  0.85473302  0.63895004     0.36200
N1065       N  0.53207031  0.06999637  0.62599262    -0.38700
N1066       N  0.48965296  0.81903411  0.64127842    -0.38700
N1067       N  0.60420443  0.03407687  0.55970899    -0.38100
N1068       N  0.40468762  0.84806369  0.69753818    -0.38100
C1069       C  0.45810646  0.94937951  0.17535886    -0.04800
C1070       C  0.46127839  0.95679057  0.13231217    -0.01900
C1071       C  0.42211486  0.94032476  0.10808825     0.03100
C1072       C  0.37928410  0.91559990  0.12614547    -0.04800
C1073       C  0.37586175  0.90522539  0.16810210    -0.01900
C1074       C  0.41446845  0.92230993  0.19271790     0.03100
C1075       C  0.50453198  0.98164229  0.11243986     0.37800
C1076       C  0.33177972  0.87860910  0.18644921     0.37700
C1077       C  0.40799206  0.91365863  0.23646307     0.36200
C1078       C  0.42572879  0.95060713  0.06465947     0.36200
N1079       N  0.40244144  0.90656842  0.27127586    -0.38700
N1080       N  0.42856522  0.95872963  0.03000421    -0.38700
N1081       N  0.29665398  0.85731598  0.20096738    -0.38100
N1082       N  0.53873352  0.00138069  0.09595757    -0.38100
C1083       C  0.28593512  0.00507960  0.28582234    -0.04800
C1084       C  0.32316386  0.01649203  0.26041408    -0.01900
C1085       C  0.31682974  0.00587514  0.21856192     0.03100
C1086       C  0.27329612  0.98537520  0.20198851    -0.04800
C1087       C  0.23645549  0.97660895  0.22733300    -0.01900
C1088       C  0.24277485  0.98577597  0.26928457     0.03100
C1089       C  0.36808469  0.04030491  0.27694356     0.37800
C1090       C  0.19199775  0.95887788  0.21031007     0.37700
C1091       C  0.20491272  0.97588139  0.29554134     0.36200
C1092       C  0.35501901  0.01489226  0.19321970     0.36200
N1093       N  0.17488846  0.96812198  0.31658802    -0.38700
N1094       N  0.38576690  0.02229231  0.17337183    -0.38700
N1095       N  0.15655253  0.94470481  0.19681894    -0.38100
N1096       N  0.40421596  0.05978080  0.28935172    -0.38100
C1097       C  0.25061910  0.04015829  0.03426512    -0.04800
C1098       C  0.26818867  0.08143681  0.05506322    -0.01900
C1099       C  0.28371337  0.12182716  0.03265650     0.03100
C1100       C  0.28262597  0.12106927  0.98946158    -0.04800
C1101       C  0.26230020  0.07955843  0.96895735    -0.01900
C1102       C  0.24632057  0.03932352  0.99125314     0.03100
C1103       C  0.27333729  0.08270540  0.09915782     0.37800
C1104       C  0.25915842  0.07823058  0.92465193     0.37700
C1105       C  0.22800652  0.99699255  0.96969124     0.36200
C1106       C  0.30129458  0.16414521  0.05393187     0.36200
N1107       N  0.21373552  0.96323738  0.95263175    -0.38700
N1108       N  0.31495627  0.19781463  0.07101869    -0.38700
N1109       N  0.25646876  0.07686107  0.88933167    -0.38100
N1110       N  0.27764662  0.08378291  0.13432928    -0.38100
C1111       C  0.32348596  0.93875731  0.95787712    -0.04800
C1112       C  0.31934881  0.90336361  0.93333227    -0.01900
C1113       C  0.32481278  0.90873999  0.89069418     0.03100
C1114       C  0.33539684  0.95019441  0.87197369    -0.04800
C1115       C  0.33765570  0.98492791  0.89682603    -0.01900
C1116       C  0.33428134  0.98007022  0.93967750     0.03100
C1117       C  0.30958600  0.86111771  0.95212117     0.37800
C1118       C  0.33967248  0.02434718  0.87889399     0.37700
C1119       C  0.34127541  0.01774811  0.96466542     0.36200
C1120       C  0.31629950  0.87005845  0.86638635     0.36200
N1121       N  0.34794861  0.04865603  0.98376375    -0.38700
N1122       N  0.30921719  0.83902368  0.84727383    -0.38700
N1123       N  0.33929149  0.05505844  0.86511747    -0.38100
N1124       N  0.30167402  0.82745643  0.96710847    -0.38100
C1125       C  0.12376702  0.83526986  0.00573485    -0.04800
C1126       C  0.08220848  0.82558677  0.02297478    -0.01900
C1127       C  0.04259295  0.80363949  0.99967160     0.03100
C1128       C  0.04385214  0.79052513  0.95906963    -0.04800
C1129       C  0.08564887  0.80195254  0.94126408    -0.01900
C1130       C  0.12545517  0.82447656  0.96441471     0.03100
C1131       C  0.07949270  0.83457440  0.06593483     0.37800
C1132       C  0.08728482  0.78748631  0.89998175     0.37700
C1133       C  0.16803015  0.83584535  0.94591702     0.36200
C1134       C  0.99972594  0.79032636  0.01878186     0.36200
N1135       N  0.20196860  0.84490339  0.93106850    -0.38700
N1136       N  0.96545731  0.77924651  0.03400991    -0.38700
N1137       N  0.08877884  0.77580991  0.86715149    -0.38100
N1138       N  0.07725225  0.84127982  0.10029494    -0.38100
C1139       C  0.17123193  0.78625065  0.15637101    -0.04800
C1140       C  0.17017442  0.78994284  0.19935002    -0.01900
C1141       C  0.14615129  0.75100455  0.22397366     0.03100
C1142       C  0.12228700  0.70831727  0.20564343    -0.04800
C1143       C  0.12610845  0.70461755  0.16296840    -0.01900
C1144       C  0.15057869  0.74328975  0.13846987     0.03100
C1145       C  0.19315029  0.83382643  0.21815653     0.37800
C1146       C  0.10241946  0.66086939  0.14391676     0.37700
C1147       C  0.15247009  0.73887539  0.09446487     0.36200
C1148       C  0.14473070  0.75500246  0.26799091     0.36200
N1149       N  0.15379200  0.73512496  0.05938018    -0.38700
N1150       N  0.14433418  0.75846893  0.30318061    -0.38700
N1151       N  0.08332996  0.62600126  0.12873831    -0.38100
N1152       N  0.21155777  0.86878392  0.23328842    -0.38100
loop_ 
_geom_bond_atom_site_label_1 
_geom_bond_atom_site_label_2 
_geom_bond_distance 
_geom_bond_site_symmetry_2 
_ccdc_geom_bond_type 
O1          Cr19   2.011       .  S
O1            C9   1.265       .  A
O2          Cr19   1.936       .  S
O2            C3   1.249   1_565  A
C3            O4   1.273   1_545  A
C3         C1097   1.480       .  S
O4          Cr20   2.051       .  S
O5          Cr20   1.957       .  S
O5            C6   1.256       .  A
C6            O7   1.278       .  A
C6         C1125   1.492       .  S
O7          Cr21   2.050       .  S
O8          Cr21   1.946       .  S
O8            C9   1.253       .  A
C9         C1111   1.473   1_554  S
O10         Cr19   1.938       .  S
O10          C18   1.250       .  A
O11         Cr19   2.013       .  S
O11          C12   1.266       .  A
C12          O13   1.252       .  A
C12        C1086   1.472       .  S
O13         Cr20   1.940       .  S
O14         Cr20   2.036       .  S
O14          C15   1.273       .  A
C15          O16   1.257       .  A
C15        C1139   1.487       .  S
O16         Cr21   1.968       .  S
O17         Cr21   2.061       .  S
O17          C18   1.277       .  A
C18        C1072   1.487       .  S
Cr19         O22   1.763       .  S
Cr20         O22   1.763       .  S
Cr21         O22   1.762       .  S
O23         Cr41   1.968       .  S
O23          C31   1.265       .  A
O24         Cr41   1.986   1_545  S
O24          C25   1.258       .  A
C25          O26   1.266       .  A
C25        C1030   1.497       .  S
O26         Cr42   2.013       .  S
O27         Cr42   1.985       .  S
O27          C28   1.262       .  A
C28          O29   1.268   1_545  A
C28        C1041   1.500       .  S
O29         Cr43   2.004       .  S
O30         Cr43   1.998       .  S
O30          C31   1.270       .  A
C31        C1114   1.494       .  S
O32         Cr41   1.975       .  S
O32          C40   1.252       .  A
O33         Cr41   1.982       .  S
O33          C34   1.264   1_565  A
C34          O35   1.261       .  A
C34        C1013   1.498       .  S
O35         Cr42   1.987       .  S
O36         Cr42   2.006       .  S
O36          C37   1.268   1_545  A
C37          O38   1.262       .  A
C37        C1055   1.509       .  S
O38         Cr43   1.992       .  S
O39         Cr43   2.019       .  S
O39          C40   1.264       .  A
C40         C999   1.491       .  S
Cr41         O44   1.770       .  S
Cr42         O44   1.763   1_545  S
Cr43         O44   1.766       .  S
O45         Cr63   2.022   1_655  S
O45          C53   1.269   1_655  A
O46         Cr63   1.946       .  S
O46          C47   1.249       .  A
C47          O48   1.273       .  A
C47         C946   1.492       .  S
O48         Cr64   2.058       .  S
O49         Cr64   1.982       .  S
O49          C50   1.262       .  A
C50          O51   1.278       .  A
C50         C974   1.516       .  S
O51         Cr65   2.043       .  S
O52         Cr65   1.953       .  S
O52          C53   1.255       .  A
C53         C957   1.481   1_455  S
O54         Cr63   1.940   1_655  S
O54          C62   1.247       .  A
O55         Cr63   2.014       .  S
O55          C56   1.269       .  A
C56          O57   1.260       .  A
C56         C932   1.499   1_554  S
O57         Cr64   1.970       .  S
O58         Cr64   2.038       .  S
O58          C59   1.275       .  A
C59          O60   1.263       .  A
C59         C988   1.509       .  S
O60         Cr65   1.981       .  S
O61         Cr65   2.065       .  S
O61          C62   1.276   1_455  A
C62         C918   1.495       .  S
Cr63         O66   1.762       .  S
Cr64         O66   1.767       .  S
Cr65         O66   1.768       .  S
O67         Cr85   1.938       .  S
O67          C75   1.248       .  A
O68         Cr85   2.021       .  S
O68          C69   1.269       .  A
C69          O70   1.251       .  A
C69         C890   1.467       .  S
O70         Cr86   1.943       .  S
O71         Cr86   2.043       .  S
O71          C72   1.276       .  A
C72          O73   1.258       .  A
C72        C1027   1.489       .  S
O73         Cr87   1.962       .  S
O74         Cr87   2.061       .  S
O74          C75   1.275       .  A
C75         C876   1.487       .  S
O76         Cr85   2.024       .  S
O76          C84   1.270       .  A
O77         Cr85   1.946       .  S
O77          C78   1.250       .  A
C78          O79   1.276       .  A
C78         C985   1.492       .  S
O79         Cr86   2.060       .  S
O80         Cr86   1.962       .  S
O80          C81   1.256       .  A
C81          O82   1.275       .  A
C81        C1100   1.482       .  S
O82         Cr87   2.039       .  S
O83         Cr87   1.938       .  S
O83          C84   1.251       .  A
C84         C901   1.483   1_556  S
Cr85         O88   1.758       .  S
Cr86         O88   1.761       .  S
Cr87         O88   1.764       .  S
O89        Cr107   2.023       .  S
O89          C97   1.269       .  A
O90        Cr107   1.929       .  S
O90          C91   1.245       .  A
C91          O92   1.272       .  A
C91         C803   1.483       .  S
O92        Cr108   2.055       .  S
O93        Cr108   1.974       .  S
O93          C94   1.260       .  A
C94          O95   1.277       .  A
C94         C848   1.497       .  S
O95        Cr109   2.048       .  S
O96        Cr109   1.951       .  S
O96          C97   1.254       .  A
C97         C960   1.477       .  S
O98        Cr107   1.937   1_455  S
O98         C106   1.249       .  A
O99        Cr107   2.030       .  S
O99         C100   1.270       .  A
C100        O101   1.254       .  A
C100        C831   1.479       .  S
O101       Cr108   1.955       .  S
O102       Cr108   2.035       .  S
O102        C103   1.274       .  A
C103        O104   1.255       .  A
C103        C859   1.490       .  S
O104       Cr109   1.957       .  S
O105       Cr109   2.054       .  S
O105        C106   1.274   1_655  A
C106        C817   1.488       .  S
Cr107       O110   1.762       .  S
Cr108       O110   1.774       .  S
Cr109       O110   1.765       .  S
O111       Cr129   1.942       .  S
O111        C119   1.249       .  A
O112       Cr129   2.014       .  S
O112        C113   1.267       .  A
C113        O114   1.252       .  A
C113        C904   1.464       .  S
O114       Cr130   1.946       .  S
O115       Cr130   2.032       .  S
O115        C116   1.274       .  A
C116        O117   1.260       .  A
C116        C789   1.490       .  S
O117       Cr131   1.971       .  S
O118       Cr131   2.060       .  S
O118        C119   1.275       .  A
C119        C971   1.498       .  S
O120       Cr129   2.017       .  S
O120        C128   1.269       .  A
O121       Cr129   1.942       .  S
O121        C122   1.249       .  A
C122        O123   1.271       .  A
C122        C747   1.481       .  S
O123       Cr130   2.048       .  S
O124       Cr130   1.973       .  S
O124        C125   1.260       .  A
C125        O126   1.276       .  A
C125        C778   1.506       .  S
O126       Cr131   2.042       .  S
O127       Cr131   1.958       .  S
O127        C128   1.256       .  A
C128        C764   1.487       .  S
Cr129       O132   1.766       .  S
Cr130       O132   1.769       .  S
Cr131       O132   1.768       .  S
O133       Cr151   2.031       .  S
O133        C141   1.272       .  A
O134       Cr151   1.944   1_455  S
O134        C135   1.251       .  A
C135        O136   1.280       .  A
C135        C705   1.505       .  S
O136       Cr152   2.076       .  S
O137       Cr152   1.978       .  S
O137        C138   1.261       .  A
C138        O139   1.276   1_455  A
C138        C719   1.509       .  S
O139       Cr153   2.035       .  S
O140       Cr153   1.958       .  S
O140        C141   1.257       .  A
C141        C834   1.491       .  S
O142       Cr151   1.939       .  S
O142        C150   1.246       .  A
O143       Cr151   2.014   1_455  S
O143        C144   1.267       .  A
C144        O145   1.257       .  A
C144        C929   1.496       .  S
O145       Cr152   1.969       .  S
O146       Cr152   2.055       .  S
O146        C147   1.280   1_455  A
C147        O148   1.262       .  A
C147        C733   1.513       .  S
O148       Cr153   1.974       .  S
O149       Cr153   2.066       .  S
O149        C150   1.273       .  A
C150        C691   1.494       .  S
Cr151       O154   1.755       .  S
Cr152       O154   1.764   1_455  S
Cr153       O154   1.769       .  S
O155       Cr173   2.001   1_565  S
O155        C163   1.263   1_565  A
O156       Cr173   1.940       .  S
O156        C157   1.247       .  A
C157        O158   1.270       .  A
C157        C649   1.483       .  S
O158       Cr174   2.050       .  S
O159       Cr174   1.968       .  S
O159        C160   1.259       .  A
C160        O161   1.277       .  A
C160        C750   1.495       .  S
O161       Cr175   2.036       .  S
O162       Cr175   1.944       .  S
O162        C163   1.250       .  A
C163       C1083   1.458       .  S
O164       Cr173   1.930   1_565  S
O164        C172   1.249       .  A
O165       Cr173   2.014       .  S
O165        C166   1.267       .  A
C166        O167   1.256       .  A
C166       C1016   1.466       .  S
O167       Cr174   1.945       .  S
O168       Cr174   2.043       .  S
O168        C169   1.275       .  A
C169        O170   1.258       .  A
C169        C680   1.506       .  S
O170       Cr175   1.973       .  S
O171       Cr175   2.047       .  S
O171        C172   1.273   1_545  A
C172        C666   1.483       .  S
Cr173       O176   1.765       .  S
Cr174       O176   1.767       .  S
Cr175       O176   1.765       .  S
O177       Cr195   1.943       .  S
O177        C185   1.249       .  A
O178       Cr195   2.021       .  S
O178        C179   1.269       .  A
C179        O180   1.253       .  A
C179        C887   1.495       .  S
O180       Cr196   1.950       .  S
O181       Cr196   2.059       .  S
O181        C182   1.279       .  A
C182        O183   1.261       .  A
C182        C708   1.506       .  S
O183       Cr197   1.983       .  S
O184       Cr197   2.059       .  S
O184        C185   1.275       .  A
C185        C635   1.492       .  S
O186       Cr195   2.021       .  S
O186        C194   1.270       .  A
O187       Cr195   1.938       .  S
O187        C188   1.247       .  A
C188        O189   1.279       .  A
C188        C677   1.494       .  S
O189       Cr196   2.073       .  S
O190       Cr196   1.966       .  S
O190        C191   1.258       .  A
C191        O192   1.277       .  A
C191        C820   1.505       .  S
O192       Cr197   2.044       .  S
O193       Cr197   1.955       .  S
O193        C194   1.256       .  A
C194        C761   1.488       .  S
Cr195       O198   1.764       .  S
Cr196       O198   1.760       .  S
Cr197       O198   1.765       .  S
O199       Cr217   1.939       .  S
O199        C207   1.246       .  A
O200       Cr217   2.018   1_655  S
O200        C201   1.268   1_655  A
C201        O202   1.257       .  A
C201        C624   1.485       .  S
O202       Cr218   1.963       .  S
O203       Cr218   2.041       .  S
O203        C204   1.276       .  A
C204        O205   1.256       .  A
C204       C1002   1.483       .  S
O205       Cr219   1.956       .  S
O206       Cr219   2.056       .  S
O206        C207   1.273       .  A
C207        C722   1.489       .  S
O208       Cr217   2.027       .  S
O208        C216   1.270       .  A
O209       Cr217   1.941   1_655  S
O209        C210   1.251       .  A
C210        O211   1.274   1_655  A
C210        C596   1.482       .  S
O211       Cr218   2.049       .  S
O212       Cr218   1.971       .  S
O212        C213   1.258       .  A
C213        O214   1.274       .  A
C213        C663   1.501       .  S
O214       Cr219   2.035       .  S
O215       Cr219   1.947       .  S
O215        C216   1.253       .  A
C216        C607   1.483       .  S
Cr217       O220   1.760       .  S
Cr218       O220   1.766       .  S
Cr219       O220   1.770       .  S
O221       Cr239   1.934       .  S
O221        C229   1.247   1_565  A
O222       Cr239   1.993       .  S
O222        C223   1.259       .  A
C223        O224   1.252       .  A
C223        C565   1.457       .  S
O224       Cr240   1.945       .  S
O225       Cr240   2.037       .  S
O225        C226   1.275       .  A
C226        O227   1.259       .  A
C226        C540   1.493       .  S
O227       Cr241   1.966       .  S
O228       Cr241   2.052       .  S
O228        C229   1.272   1_565  A
C229        C862   1.477       .  S
O230       Cr239   1.993       .  S
O230        C238   1.261       .  A
O231       Cr239   1.939       .  S
O231        C232   1.252       .  A
C232        O233   1.275       .  A
C232       C1058   1.490       .  S
O233       Cr240   2.054       .  S
O234       Cr240   1.971       .  S
O234        C235   1.258       .  A
C235        O236   1.274       .  A
C235        C551   1.492       .  S
O236       Cr241   2.038       .  S
O237       Cr241   1.950       .  S
O237        C238   1.254       .  A
C238        C579   1.451       .  S
Cr239       O242   1.765       .  S
Cr240       O242   1.763       .  S
Cr241       O242   1.769       .  S
O243       Cr261   1.942   1_455  S
O243        C251   1.250       .  A
O244       Cr261   2.017       .  S
O244        C245   1.268       .  A
C245        O246   1.256       .  A
C245        C523   1.480       .  S
O246       Cr262   1.956       .  S
O247       Cr262   2.045       .  S
O247        C248   1.276   1_655  A
C248        O249   1.261       .  A
C248        C943   1.494       .  S
O249       Cr263   1.975       .  S
O250       Cr263   2.051       .  S
O250        C251   1.272       .  A
C251       C1142   1.486       .  S
O252       Cr261   2.008   1_455  S
O252        C260   1.267       .  A
O253       Cr261   1.946       .  S
O253        C254   1.249       .  A
C254        O255   1.274       .  A
C254        C509   1.487       .  S
O255       Cr262   2.054       .  S
O256       Cr262   1.972       .  S
O256        C257   1.258       .  A
C257        O258   1.271   1_655  A
C257        C806   1.505       .  S
O258       Cr263   2.028       .  S
O259       Cr263   1.968       .  S
O259        C260   1.258       .  A
C260        C610   1.499       .  S
Cr261       O264   1.764       .  S
Cr262       O264   1.766       .  S
Cr263       O264   1.771   1_455  S
O265       Cr283   2.013       .  S
O265        C273   1.265       .  A
O266       Cr283   1.937       .  S
O266        C267   1.248       .  A
C267        O268   1.272       .  A
C267        C537   1.481       .  S
O268       Cr284   2.049       .  S
O269       Cr284   1.961       .  S
O269        C270   1.256       .  A
C270        O271   1.275       .  A
C270        C593   1.495       .  S
O271       Cr285   2.041       .  S
O272       Cr285   1.948       .  S
O272        C273   1.254       .  A
C273        C481   1.475       .  S
O274       Cr283   1.939       .  S
O274        C282   1.249       .  A
O275       Cr283   2.011       .  S
O275        C276   1.266       .  A
C276        O277   1.255       .  A
C276        C498   1.471       .  S
O277       Cr284   1.950       .  S
O278       Cr284   2.043       .  S
O278        C279   1.276       .  A
C279        O280   1.257       .  A
C279        C512   1.498       .  S
O280       Cr285   1.964       .  S
O281       Cr285   2.054       .  S
O281        C282   1.274       .  A
C282        C775   1.488       .  S
Cr283       O286   1.765       .  S
Cr284       O286   1.767       .  S
Cr285       O286   1.767       .  S
O287       Cr305   1.980       .  S
O287        C295   1.265       .  A
O288       Cr305   1.987       .  S
O288        C289   1.259       .  A
C289        O290   1.267       .  A
C289        C554   1.496       .  S
O290       Cr306   2.017       .  S
O291       Cr306   2.000       .  S
O291        C292   1.264       .  A
C292        O293   1.266       .  A
C292        C638   1.507       .  S
O293       Cr307   1.999       .  S
O294       Cr307   1.986       .  S
O294        C295   1.264       .  A
C295        C484   1.500       .  S
O296       Cr305   1.984       .  S
O296        C304   1.258       .  A
O297       Cr305   1.977       .  S
O297        C298   1.263       .  A
C298        O299   1.264       .  A
C298        C467   1.505       .  S
O299       Cr306   1.996       .  S
O300       Cr306   2.001       .  S
O300        C301   1.266       .  A
C301        O302   1.262       .  A
C301        C873   1.513       .  S
O302       Cr307   1.995       .  S
O303       Cr307   2.013       .  S
O303        C304   1.266       .  A
C304        C453   1.497       .  S
Cr305       O308   1.764       .  S
Cr306       O308   1.763       .  S
Cr307       O308   1.763       .  S
O309       Cr327   1.983   1_565  S
O309        C317   1.255       .  A
O310       Cr327   1.959       .  S
O310        C311   1.263       .  A
C311        O312   1.270       .  A
C311        C439   1.491   1_556  S
O312       Cr328   1.998       .  S
O313       Cr328   2.011       .  S
O313        C314   1.269       .  A
C314        O315   1.262       .  A
C314        C915   1.512   1_556  S
O315       Cr329   1.989       .  S
O316       Cr329   2.009       .  S
O316        C317   1.264   1_545  A
C317        C425   1.491       .  S
O318       Cr327   1.961       .  S
O318        C326   1.261       .  A
O319       Cr327   1.975       .  S
O319        C320   1.250       .  A
C320        O321   1.266       .  A
C320       C1044   1.490       .  S
O321       Cr328   2.026       .  S
O322       Cr328   2.001       .  S
O322        C323   1.264       .  A
C323        O324   1.266       .  A
C323        C694   1.500       .  S
O324       Cr329   1.993       .  S
O325       Cr329   1.995       .  S
O325        C326   1.266       .  A
C326        C582   1.481       .  S
Cr327       O330   1.768       .  S
Cr328       O330   1.759       .  S
Cr329       O330   1.764       .  S
O331       Cr349   1.988   1_545  S
O331        C339   1.256       .  A
O332       Cr349   1.964       .  S
O332        C333   1.260       .  A
C333        O334   1.262       .  A
C333        C568   1.490       .  S
O334       Cr350   1.986       .  S
O335       Cr350   1.998       .  S
O335        C336   1.266   1_565  A
C336        O337   1.263       .  A
C336        C652   1.505       .  S
O337       Cr351   1.993       .  S
O338       Cr351   2.026       .  S
O338        C339   1.266       .  A
C339        C845   1.501       .  S
O340       Cr349   1.957       .  S
O340        C348   1.260   1_565  A
O341       Cr349   1.985       .  S
O341        C342   1.258       .  A
C342        O343   1.264       .  A
C342        C414   1.486       .  S
O343       Cr350   2.004       .  S
O344       Cr350   1.983       .  S
O344        C345   1.262       .  A
C345        O346   1.271   1_565  A
C345       C1069   1.519       .  S
O346       Cr351   2.022       .  S
O347       Cr351   1.999       .  S
O347        C348   1.267       .  A
C348        C442   1.496       .  S
Cr349       O352   1.766       .  S
Cr350       O352   1.756       .  S
Cr351       O352   1.761   1_545  S
O353       Cr371   1.933       .  S
O353        C361   1.246   1_655  A
O354       Cr371   2.025       .  S
O354        C355   1.269   1_556  A
C355        O356   1.254   1_554  A
C355        C526   1.481       .  S
O356       Cr372   1.953       .  S
O357       Cr372   2.046       .  S
O357        C358   1.276       .  A
C358        O359   1.259       .  A
C358        C400   1.496       .  S
O359       Cr373   1.968       .  S
O360       Cr373   2.055       .  S
O360        C361   1.273   1_655  A
C361       C1128   1.483       .  S
O362       Cr371   2.027       .  S
O362        C370   1.270       .  A
O363       Cr371   1.935       .  S
O363        C364   1.247       .  A
C364        O365   1.276       .  A
C364        C736   1.494       .  S
O365       Cr372   2.064       .  S
O366       Cr372   1.967       .  S
O366        C367   1.259       .  A
C367        O368   1.275       .  A
C367        C456   1.490       .  S
O368       Cr373   2.037       .  S
O369       Cr373   1.950       .  S
O369        C370   1.254       .  A
C370        C621   1.479       .  S
Cr371       O374   1.765       .  S
Cr372       O374   1.772       .  S
Cr373       O374   1.773       .  S
O375       Cr393   2.015       .  S
O375        C383   1.267       .  A
O376       Cr393   1.943       .  S
O376        C377   1.249       .  A
C377        O378   1.273       .  A
C377        C397   1.486       .  S
O378       Cr394   2.050       .  S
O379       Cr394   1.957       .  S
O379        C380   1.254       .  A
C380        O381   1.272       .  A
C380        C428   1.482       .  S
O381       Cr395   2.035       .  S
O382       Cr395   1.955       .  S
O382        C383   1.256       .  A
C383        C470   1.476   1_554  S
O384       Cr393   1.947       .  S
O384        C392   1.251       .  A
O385       Cr393   2.015       .  S
O385        C386   1.266       .  A
C386        O387   1.252       .  A
C386        C495   1.470       .  S
O387       Cr394   1.945       .  S
O388       Cr394   2.034       .  S
O388        C389   1.274       .  A
C389        O390   1.257       .  A
C389        C411   1.483       .  S
O390       Cr395   1.962       .  S
O391       Cr395   2.044       .  S
O391        C392   1.271       .  A
C392        C792   1.483       .  S
Cr393       O396   1.765       .  S
Cr394       O396   1.772       .  S
Cr395       O396   1.772       .  S
C397        C398   1.411       .  A
C397        C402   1.413       .  A
C398        C399   1.416   1_554  A
C398        C403   1.451   1_554  S
C399        C400   1.418       .  A
C399        C406   1.451       .  S
C400        C401   1.412   1_556  A
C401        C402   1.416       .  A
C401        C404   1.449       .  S
C402        C405   1.451       .  S
C403        N410   1.158       .  T
C404        N409   1.157       .  T
C405        N407   1.157       .  T
C406        N408   1.157       .  T
C411        C412   1.409       .  A
C411        C416   1.415       .  A
C412        C413   1.410       .  A
C412        C417   1.451       .  S
C413        C414   1.417       .  A
C413        C420   1.453       .  S
C414        C415   1.412       .  A
C415        C416   1.414       .  A
C415        C418   1.451       .  S
C416        C419   1.451       .  S
C417        N424   1.157       .  T
C418        N423   1.157       .  T
C419        N421   1.157       .  T
C420        N422   1.158       .  T
C425        C426   1.414   1_556  A
C425        C430   1.420       .  A
C426        C427   1.414       .  A
C426        C431   1.451       .  S
C427        C428   1.415       .  A
C427        C434   1.451       .  S
C428        C429   1.407   1_554  A
C429        C430   1.411       .  A
C429        C432   1.451       .  S
C430        C433   1.452       .  S
C431        N438   1.158   1_565  T
C432        N437   1.158       .  T
C433        N435   1.157       .  T
C434        N436   1.157       .  T
C439        C440   1.417       .  A
C439        C444   1.414   1_545  A
C440        C441   1.404       .  A
C440        C445   1.456       .  S
C441        C442   1.423       .  A
C441        C448   1.455       .  S
C442        C443   1.423   1_545  A
C443        C444   1.406       .  A
C443        C446   1.453       .  S
C444        C447   1.453       .  S
C445        N452   1.157       .  T
C446        N451   1.157       .  T
C447        N449   1.157       .  T
C448        N450   1.158       .  T
C453        C454   1.414       .  A
C453        C458   1.420       .  A
C454        C455   1.417       .  A
C454        C459   1.450       .  S
C455        C456   1.417       .  A
C455        C462   1.451       .  S
C456        C457   1.409       .  A
C457        C458   1.412       .  A
C457        C460   1.451       .  S
C458        C461   1.453       .  S
C459        N466   1.157       .  T
C460        N465   1.157       .  T
C461        N463   1.158       .  T
C462        N464   1.157       .  T
C467        C468   1.429       .  A
C467        C472   1.424       .  A
C468        C469   1.409       .  A
C468        C473   1.453       .  S
C469        C470   1.406       .  A
C469        C476   1.454       .  S
C470        C471   1.407       .  A
C471        C472   1.409       .  A
C471        C474   1.450       .  S
C472        C475   1.452       .  S
C473        N480   1.158       .  T
C474        N479   1.157       .  T
C475        N477   1.157       .  T
C476        N478   1.157       .  T
C481        C482   1.408       .  A
C481        C486   1.409       .  A
C482        C483   1.405       .  A
C482        C487   1.455       .  S
C483        C484   1.427       .  A
C483        C490   1.455       .  S
C484        C485   1.421       .  A
C485        C486   1.410       .  A
C485        C488   1.450       .  S
C486        C489   1.451       .  S
C487        N494   1.158       .  T
C488        N493   1.157       .  T
C489        N491   1.157       .  T
C490        N492   1.157       .  T
C495        C496   1.412       .  A
C495        C500   1.409       .  A
C496        C497   1.406       .  A
C496        C501   1.452       .  S
C497        C498   1.412       .  A
C497        C504   1.452       .  S
C498        C499   1.411       .  A
C499        C500   1.406       .  A
C499        C502   1.450       .  S
C500        C503   1.449       .  S
C501        N508   1.157       .  T
C502        N507   1.157       .  T
C503        N505   1.157       .  T
C504        N506   1.158       .  T
C509        C510   1.409       .  A
C509        C514   1.415       .  A
C510        C511   1.417       .  A
C510        C515   1.451       .  S
C511        C512   1.421       .  A
C511        C518   1.451       .  S
C512        C513   1.412       .  A
C513        C514   1.415       .  A
C513        C516   1.451       .  S
C514        C517   1.451       .  S
C515        N522   1.157       .  T
C516        N521   1.157       .  T
C517        N519   1.157       .  T
C518        N520   1.158       .  T
C523        C524   1.413       .  A
C523        C528   1.411       .  A
C524        C525   1.408       .  A
C524        C529   1.452       .  S
C525        C526   1.413       .  A
C525        C532   1.452       .  S
C526        C527   1.412       .  A
C527        C528   1.410       .  A
C527        C530   1.448   1_655  S
C528        C531   1.450   1_655  S
C529        N536   1.157       .  T
C530        N535   1.156       .  T
C531        N533   1.157       .  T
C532        N534   1.157       .  T
C537        C538   1.413       .  A
C537        C542   1.411       .  A
C538        C539   1.415       .  A
C538        C543   1.451       .  S
C539        C540   1.414       .  A
C539        C546   1.450       .  S
C540        C541   1.417       .  A
C541        C542   1.414       .  A
C541        C544   1.451       .  S
C542        C545   1.451       .  S
C543        N550   1.157       .  T
C544        N549   1.157       .  T
C545        N547   1.157       .  T
C546        N548   1.157       .  T
C551        C552   1.416       .  A
C551        C556   1.409       .  A
C552        C553   1.418       .  A
C552        C557   1.450       .  S
C553        C554   1.413       .  A
C553        C560   1.450       .  S
C554        C555   1.418       .  A
C555        C556   1.414       .  A
C555        C558   1.452       .  S
C556        C559   1.450       .  S
C557        N564   1.158       .  T
C558        N563   1.158       .  T
C559        N561   1.157       .  T
C560        N562   1.157       .  T
C565        C566   1.405       .  A
C565        C570   1.403       .  A
C566        C567   1.404       .  A
C566        C571   1.451   1_565  S
C567        C568   1.423       .  A
C567        C574   1.453   1_565  S
C568        C569   1.428       .  A
C569        C570   1.400       .  A
C569        C572   1.454       .  S
C570        C573   1.456       .  S
C571        N578   1.156       .  T
C572        N577   1.157       .  T
C573        N575   1.158       .  T
C574        N576   1.158       .  T
C579        C580   1.405       .  A
C579        C584   1.400   1_565  A
C580        C581   1.401       .  A
C580        C585   1.451       .  S
C581        C582   1.419   1_565  A
C581        C588   1.453       .  S
C582        C583   1.424       .  A
C583        C584   1.401       .  A
C583        C586   1.450       .  S
C584        C587   1.455       .  S
C585        N592   1.156       .  T
C586        N591   1.156       .  T
C587        N589   1.157       .  T
C588        N590   1.158       .  T
C593        C594   1.421       .  A
C593        C598   1.412       .  A
C594        C595   1.415       .  A
C594        C599   1.451       .  S
C595        C596   1.407       .  A
C595        C602   1.450       .  S
C596        C597   1.414       .  A
C597        C598   1.413       .  A
C597        C600   1.451       .  S
C598        C601   1.450       .  S
C599        N606   1.157       .  T
C600        N605   1.157       .  T
C601        N603   1.157       .  T
C602        N604   1.157   1_655  T
C607        C608   1.416       .  A
C607        C612   1.406       .  A
C608        C609   1.410       .  A
C608        C613   1.451       .  S
C609        C610   1.416       .  A
C609        C616   1.450       .  S
C610        C611   1.420       .  A
C611        C612   1.408       .  A
C611        C614   1.447   1_455  S
C612        C615   1.450       .  S
C613        N620   1.156       .  T
C614        N619   1.155       .  T
C615        N617   1.157       .  T
C616        N618   1.158       .  T
C621        C622   1.410       .  A
C621        C626   1.413       .  A
C622        C623   1.410       .  A
C622        C627   1.450       .  S
C623        C624   1.414   1_655  A
C623        C630   1.449       .  S
C624        C625   1.414       .  A
C625        C626   1.410   1_455  A
C625        C628   1.451       .  S
C626        C629   1.452       .  S
C627        N634   1.157       .  T
C628        N633   1.158       .  T
C629        N631   1.157       .  T
C630        N632   1.156       .  T
C635        C636   1.418       .  A
C635        C640   1.407       .  A
C636        C637   1.412       .  A
C636        C641   1.454       .  S
C637        C638   1.417       .  A
C637        C644   1.452       .  S
C638        C639   1.425       .  A
C639        C640   1.419       .  A
C639        C642   1.451       .  S
C640        C643   1.450       .  S
C641        N648   1.157       .  T
C642        N647   1.157       .  T
C643        N645   1.158       .  T
C644        N646   1.158       .  T
C649        C650   1.414       .  A
C649        C654   1.405       .  A
C650        C651   1.410       .  A
C650        C655   1.453   1_545  S
C651        C652   1.417       .  A
C651        C658   1.451   1_545  S
C652        C653   1.427       .  A
C653        C654   1.416       .  A
C653        C656   1.451       .  S
C654        C657   1.451       .  S
C655        N662   1.157       .  T
C656        N661   1.158       .  T
C657        N659   1.157       .  T
C658        N660   1.157       .  T
C663        C664   1.424       .  A
C663        C668   1.416       .  A
C664        C665   1.416       .  A
C664        C669   1.450       .  S
C665        C666   1.406       .  A
C665        C672   1.451       .  S
C666        C667   1.414       .  A
C667        C668   1.412       .  A
C667        C670   1.452       .  S
C668        C671   1.452       .  S
C669        N676   1.158       .  T
C670        N675   1.158       .  T
C671        N673   1.157       .  T
C672        N674   1.157   1_565  T
C677        C678   1.417       .  A
C677        C682   1.410       .  A
C678        C679   1.417       .  A
C678        C683   1.451       .  S
C679        C680   1.415       .  A
C679        C686   1.451       .  S
C680        C681   1.422       .  A
C681        C682   1.420       .  A
C681        C684   1.451       .  S
C682        C685   1.449       .  S
C683        N690   1.157       .  T
C684        N689   1.157       .  T
C685        N687   1.158       .  T
C686        N688   1.158       .  T
C691        C692   1.409       .  A
C691        C696   1.418       .  A
C692        C693   1.422       .  A
C692        C697   1.449       .  S
C693        C694   1.424       .  A
C693        C700   1.450       .  S
C694        C695   1.412       .  A
C695        C696   1.405       .  A
C695        C698   1.451       .  S
C696        C699   1.455       .  S
C697        N704   1.157       .  T
C698        N703   1.157       .  T
C699        N701   1.157       .  T
C700        N702   1.157       .  T
C705        C706   1.416       .  A
C705        C710   1.416       .  A
C706        C707   1.427       .  A
C706        C711   1.448       .  S
C707        C708   1.417       .  A
C707        C714   1.449       .  S
C708        C709   1.414       .  A
C709        C710   1.417       .  A
C709        C712   1.450       .  S
C710        C713   1.452       .  S
C711        N718   1.157       .  T
C712        N717   1.157       .  T
C713        N715   1.157       .  T
C714        N716   1.157       .  T
C719        C720   1.416       .  A
C719        C724   1.426       .  A
C720        C721   1.409       .  A
C720        C725   1.449   1_455  S
C721        C722   1.415       .  A
C721        C728   1.454   1_455  S
C722        C723   1.409       .  A
C723        C724   1.421       .  A
C723        C726   1.451       .  S
C724        C727   1.450       .  S
C725        N732   1.156       .  T
C726        N731   1.157       .  T
C727        N729   1.158       .  T
C728        N730   1.157       .  T
C733        C734   1.426       .  A
C733        C738   1.416       .  A
C734        C735   1.421       .  A
C734        C739   1.450       .  S
C735        C736   1.408       .  A
C735        C742   1.450       .  S
C736        C737   1.416       .  A
C737        C738   1.416       .  A
C737        C740   1.452       .  S
C738        C741   1.451   1_655  S
C739        N746   1.157       .  T
C740        N745   1.157   1_655  T
C741        N743   1.158       .  T
C742        N744   1.158       .  T
C747        C748   1.407       .  A
C747        C752   1.414       .  A
C748        C749   1.415       .  A
C748        C753   1.450       .  S
C749        C750   1.421       .  A
C749        C756   1.450       .  S
C750        C751   1.414       .  A
C751        C752   1.412       .  A
C751        C754   1.451       .  S
C752        C755   1.452       .  S
C753        N760   1.157       .  T
C754        N759   1.157       .  T
C755        N757   1.158       .  T
C756        N758   1.158       .  T
C761        C762   1.417       .  A
C761        C766   1.410       .  A
C762        C763   1.406       .  A
C762        C767   1.450       .  S
C763        C764   1.410       .  A
C763        C770   1.449       .  S
C764        C765   1.418       .  A
C765        C766   1.410       .  A
C765        C768   1.450       .  S
C766        C769   1.449       .  S
C767        N774   1.156       .  T
C768        N773   1.157       .  T
C769        N771   1.157       .  T
C770        N772   1.156       .  T
C775        C776   1.414       .  A
C775        C780   1.409       .  A
C776        C777   1.413       .  A
C776        C781   1.452       .  S
C777        C778   1.416       .  A
C777        C784   1.451       .  S
C778        C779   1.424       .  A
C779        C780   1.419       .  A
C779        C782   1.451       .  S
C780        C783   1.451       .  S
C781        N788   1.157       .  T
C782        N787   1.157       .  T
C783        N785   1.158       .  T
C784        N786   1.158       .  T
C789        C790   1.412       .  A
C789        C794   1.417       .  A
C790        C791   1.414       .  A
C790        C795   1.451       .  S
C791        C792   1.413       .  A
C791        C798   1.451       .  S
C792        C793   1.410       .  A
C793        C794   1.414       .  A
C793        C796   1.451       .  S
C794        C797   1.451       .  S
C795        N802   1.157       .  T
C796        N801   1.157       .  T
C797        N799   1.157       .  T
C798        N800   1.157       .  T
C803        C804   1.414       .  A
C803        C808   1.406       .  A
C804        C805   1.409       .  A
C804        C809   1.454       .  S
C805        C806   1.419       .  A
C805        C812   1.453   1_655  S
C806        C807   1.427       .  A
C807        C808   1.418       .  A
C807        C810   1.451       .  S
C808        C811   1.450       .  S
C809        N816   1.157   1_655  T
C810        N815   1.157       .  T
C811        N813   1.157       .  T
C812        N814   1.158       .  T
C817        C818   1.408       .  A
C817        C822   1.414       .  A
C818        C819   1.418       .  A
C818        C823   1.451       .  S
C819        C820   1.426       .  A
C819        C826   1.451       .  S
C820        C821   1.415       .  A
C821        C822   1.412       .  A
C821        C824   1.451       .  S
C822        C825   1.452       .  S
C823        N830   1.157   1_455  T
C824        N829   1.157       .  T
C825        N827   1.157       .  T
C826        N828   1.158       .  T
C831        C832   1.411       .  A
C831        C836   1.408       .  A
C832        C833   1.412       .  A
C832        C837   1.448       .  S
C833        C834   1.415       .  A
C833        C840   1.451   1_655  S
C834        C835   1.418       .  A
C835        C836   1.410       .  A
C835        C838   1.451       .  S
C836        C839   1.452       .  S
C837        N844   1.156   1_655  T
C838        N843   1.157       .  T
C839        N841   1.157       .  T
C840        N842   1.157       .  T
C845        C846   1.416       .  A
C845        C850   1.417       .  A
C846        C847   1.420       .  A
C846        C851   1.451       .  S
C847        C848   1.416       .  A
C847        C854   1.450       .  S
C848        C849   1.411       .  A
C849        C850   1.416       .  A
C849        C852   1.450       .  S
C850        C853   1.451       .  S
C851        N858   1.158       .  T
C852        N857   1.157       .  T
C853        N855   1.157       .  T
C854        N856   1.157       .  T
C859        C860   1.411       .  A
C859        C864   1.420       .  A
C860        C861   1.412       .  A
C860        C865   1.452       .  S
C861        C862   1.415       .  A
C861        C868   1.451       .  S
C862        C863   1.407       .  A
C863        C864   1.413       .  A
C863        C866   1.451       .  S
C864        C867   1.451       .  S
C865        N872   1.158       .  T
C866        N871   1.157   1_545  T
C867        N869   1.157       .  T
C868        N870   1.157       .  T
C873        C874   1.430       .  A
C873        C878   1.419       .  A
C874        C875   1.418       .  A
C874        C879   1.450       .  S
C875        C876   1.404       .  A
C875        C882   1.451       .  S
C876        C877   1.415       .  A
C877        C878   1.412       .  A
C877        C880   1.453       .  S
C878        C881   1.452       .  S
C879        N886   1.158       .  T
C880        N885   1.158       .  T
C881        N883   1.157       .  T
C882        N884   1.157       .  T
C887        C888   1.425       .  A
C887        C892   1.419       .  A
C888        C889   1.407       .  A
C888        C893   1.452       .  S
C889        C890   1.403       .  A
C889        C896   1.454       .  S
C890        C891   1.410       .  A
C891        C892   1.410       .  A
C891        C894   1.452       .  S
C892        C895   1.452       .  S
C893        N900   1.158       .  T
C894        N899   1.158       .  T
C895        N897   1.157       .  T
C896        N898   1.157       .  T
C901        C902   1.414       .  A
C901        C906   1.422       .  A
C902        C903   1.407       .  A
C902        C907   1.452       .  S
C903        C904   1.409       .  A
C903        C910   1.450       .  S
C904        C905   1.405       .  A
C905        C906   1.405       .  A
C905        C908   1.453       .  S
C906        C909   1.453       .  S
C907        N914   1.158       .  T
C908        N913   1.157       .  T
C909        N911   1.158       .  T
C910        N912   1.157       .  T
C915        C916   1.428       .  A
C915        C920   1.416       .  A
C916        C917   1.419       .  A
C916        C921   1.450   1_554  S
C917        C918   1.405       .  A
C917        C924   1.450       .  S
C918        C919   1.420       .  A
C919        C920   1.414       .  A
C919        C922   1.453       .  S
C920        C923   1.452       .  S
C921        N928   1.158       .  T
C922        N927   1.158       .  T
C923        N925   1.157       .  T
C924        N926   1.157       .  T
C929        C930   1.418       .  A
C929        C934   1.412       .  A
C930        C931   1.413       .  A
C930        C935   1.451   1_455  S
C931        C932   1.414       .  A
C931        C938   1.450   1_455  S
C932        C933   1.419       .  A
C933        C934   1.412       .  A
C933        C936   1.450       .  S
C934        C937   1.450       .  S
C935        N942   1.156       .  T
C936        N941   1.156       .  T
C937        N939   1.158       .  T
C938        N940   1.158   1_556  T
C943        C944   1.414       .  A
C943        C948   1.413       .  A
C944        C945   1.414       .  A
C944        C949   1.450       .  S
C945        C946   1.413       .  A
C945        C952   1.453       .  S
C946        C947   1.414       .  A
C947        C948   1.420       .  A
C947        C950   1.447       .  S
C948        C951   1.450       .  S
C949        N956   1.157       .  T
C950        N955   1.157       .  T
C951        N953   1.157   1_455  T
C952        N954   1.157       .  T
C957        C958   1.415       .  A
C957        C962   1.412       .  A
C958        C959   1.409       .  A
C958        C963   1.452   1_655  S
C959        C960   1.412       .  A
C959        C966   1.452       .  S
C960        C961   1.412       .  A
C961        C962   1.409       .  A
C961        C964   1.449       .  S
C962        C965   1.451       .  S
C963        N970   1.158       .  T
C964        N969   1.156       .  T
C965        N967   1.157       .  T
C966        N968   1.157       .  T
C971        C972   1.418       .  A
C971        C976   1.409       .  A
C972        C973   1.413       .  A
C972        C977   1.453       .  S
C973        C974   1.417       .  A
C973        C980   1.452       .  S
C974        C975   1.428       .  A
C975        C976   1.423       .  A
C975        C978   1.450       .  S
C976        C979   1.451       .  S
C977        N984   1.157       .  T
C978        N983   1.157       .  T
C979        N981   1.157       .  T
C980        N982   1.157       .  T
C985        C986   1.409       .  A
C985        C990   1.415       .  A
C986        C987   1.421   1_556  A
C986        C991   1.450       .  S
C987        C988   1.424       .  A
C987        C994   1.450       .  S
C988        C989   1.417   1_554  A
C989        C990   1.414       .  A
C989        C992   1.452       .  S
C990        C993   1.452       .  S
C991        N998   1.158   1_556  T
C992        N997   1.158       .  T
C993        N995   1.157       .  T
C994        N996   1.157       .  T
C999       C1000   1.413       .  A
C999       C1004   1.419       .  A
C1000      C1001   1.415       .  A
C1000      C1005   1.450       .  S
C1001      C1002   1.415       .  A
C1001      C1008   1.451       .  S
C1002      C1003   1.408       .  A
C1003      C1004   1.411       .  A
C1003      C1006   1.451       .  S
C1004      C1007   1.452       .  S
C1005      N1012   1.158       .  T
C1006      N1011   1.157       .  T
C1007      N1009   1.157       .  T
C1008      N1010   1.157       .  T
C1013      C1014   1.430       .  A
C1013      C1018   1.422   1_545  A
C1014      C1015   1.403       .  A
C1014      C1019   1.453       .  S
C1015      C1016   1.403       .  A
C1015      C1022   1.457       .  S
C1016      C1017   1.407       .  A
C1017      C1018   1.409   1_545  A
C1017      C1020   1.449   1_545  S
C1018      C1021   1.453       .  S
C1019      N1026   1.158       .  T
C1020      N1025   1.157       .  T
C1021      N1023   1.157       .  T
C1022      N1024   1.157       .  T
C1027      C1028   1.417       .  A
C1027      C1032   1.408       .  A
C1028      C1029   1.417       .  A
C1028      C1033   1.451       .  S
C1029      C1030   1.414       .  A
C1029      C1036   1.450       .  S
C1030      C1031   1.420       .  A
C1031      C1032   1.412       .  A
C1031      C1034   1.453       .  S
C1032      C1035   1.451       .  S
C1033      N1040   1.157       .  T
C1034      N1039   1.157       .  T
C1035      N1037   1.157       .  T
C1036      N1038   1.157       .  T
C1041      C1042   1.422       .  A
C1041      C1046   1.414       .  A
C1042      C1043   1.415       .  A
C1042      C1047   1.452       .  S
C1043      C1044   1.410       .  A
C1043      C1050   1.452       .  S
C1044      C1045   1.418       .  A
C1045      C1046   1.415       .  A
C1045      C1048   1.452       .  S
C1046      C1049   1.452       .  S
C1047      N1054   1.158       .  T
C1048      N1053   1.158       .  T
C1049      N1051   1.157       .  T
C1050      N1052   1.157       .  T
C1055      C1056   1.427       .  A
C1055      C1060   1.418       .  A
C1056      C1057   1.417       .  A
C1056      C1061   1.450       .  S
C1057      C1058   1.405       .  A
C1057      C1064   1.450       .  S
C1058      C1059   1.415       .  A
C1059      C1060   1.413       .  A
C1059      C1062   1.453   1_565  S
C1060      C1063   1.451   1_565  S
C1061      N1068   1.157       .  T
C1062      N1067   1.158       .  T
C1063      N1065   1.157       .  T
C1064      N1066   1.157       .  T
C1069      C1070   1.423       .  A
C1069      C1074   1.431       .  A
C1070      C1071   1.422       .  A
C1070      C1075   1.448       .  S
C1071      C1072   1.412       .  A
C1071      C1078   1.451       .  S
C1072      C1073   1.405       .  A
C1073      C1074   1.413       .  A
C1073      C1076   1.453       .  S
C1074      C1077   1.453       .  S
C1075      N1082   1.157   1_565  T
C1076      N1081   1.157       .  T
C1077      N1079   1.158       .  T
C1078      N1080   1.158       .  T
C1083      C1084   1.409       .  A
C1083      C1088   1.405   1_545  A
C1084      C1085   1.406       .  A
C1084      C1089   1.451       .  S
C1085      C1086   1.414   1_545  A
C1085      C1092   1.452       .  S
C1086      C1087   1.417       .  A
C1087      C1088   1.401       .  A
C1087      C1090   1.453       .  S
C1088      C1091   1.453       .  S
C1089      N1096   1.157       .  T
C1090      N1095   1.157       .  T
C1091      N1093   1.157       .  T
C1092      N1094   1.158       .  T
C1097      C1098   1.414       .  A
C1097      C1102   1.413   1_554  A
C1098      C1099   1.416       .  A
C1098      C1103   1.450       .  S
C1099      C1100   1.412   1_554  A
C1099      C1106   1.450       .  S
C1100      C1101   1.411       .  A
C1101      C1102   1.408       .  A
C1101      C1104   1.451       .  S
C1102      C1105   1.453   1_545  S
C1103      N1110   1.158       .  T
C1104      N1109   1.157       .  T
C1105      N1107   1.157       .  T
C1106      N1108   1.157       .  T
C1111      C1112   1.410       .  A
C1111      C1116   1.409       .  A
C1112      C1113   1.404       .  A
C1112      C1117   1.454       .  S
C1113      C1114   1.422       .  A
C1113      C1120   1.454       .  S
C1114      C1115   1.420       .  A
C1115      C1116   1.407       .  A
C1115      C1118   1.449   1_565  S
C1116      C1119   1.452   1_565  S
C1117      N1124   1.158       .  T
C1118      N1123   1.157       .  T
C1119      N1121   1.157       .  T
C1120      N1122   1.157       .  T
C1125      C1126   1.417       .  A
C1125      C1130   1.411   1_554  A
C1126      C1127   1.414   1_554  A
C1126      C1131   1.452       .  S
C1127      C1128   1.411       .  A
C1127      C1134   1.452   1_456  S
C1128      C1129   1.417       .  A
C1129      C1130   1.417       .  A
C1129      C1132   1.451       .  S
C1130      C1133   1.450       .  S
C1131      N1138   1.157       .  T
C1132      N1137   1.157       .  T
C1133      N1135   1.157       .  T
C1134      N1136   1.157       .  T
C1139      C1140   1.413       .  A
C1139      C1144   1.412       .  A
C1140      C1141   1.418       .  A
C1140      C1145   1.450       .  S
C1141      C1142   1.413       .  A
C1141      C1148   1.448       .  S
C1142      C1143   1.413       .  A
C1143      C1144   1.411       .  A
C1143      C1146   1.450       .  S
C1144      C1147   1.451       .  S
C1145      N1152   1.157       .  T
C1146      N1151   1.156       .  T
C1147      N1149   1.157       .  T
C1148      N1150   1.157       .  T
