geometry optimzed in LAMMPS
_audit_creation_date              2020-11-30 
_audit_creation_method            'lammps2cif' 
_symmetry_space_group_name_H-M    'P1' 
_symmetry_Int_Tables_number       1 
_symmetry_cell_setting            triclinic 
loop_ 
_symmetry_equiv_pos_as_xyz 
  x,y,z 
_cell_length_a                    67.48057053 
_cell_length_b                    67.49443324762014 
_cell_length_c                    40.63450159579819 
_cell_angle_alpha                 89.71421446692692 
_cell_angle_beta                  90.32731187278851 
_cell_angle_gamma                 120.21742981624904 
loop_ 
_atom_site_label 
_atom_site_type_symbol 
_atom_site_fract_x 
_atom_site_fract_y 
_atom_site_fract_z 
_atom_site_charge 
O1          O  0.58694719  0.39848348  0.44770413    -0.88200
C2          C  0.60932087  0.44261771  0.52468963     0.87900
Mg3        Mg  0.59148167  0.40907445  0.39754629     1.58100
O4          O  0.54987201  0.41328287  0.51403843    -0.87900
O5          O  0.55911815  0.37633465  0.48139337    -0.75200
C6          C  0.55259075  0.48213670  0.39129303     0.92900
O7          O  0.62971748  0.44959979  0.45220617    -0.75000
O8          O  0.56615910  0.47702857  0.37701232    -0.82500
Mg9        Mg  0.61643829  0.41504781  0.47889865     1.58000
C10         C  0.51489989  0.44860152  0.51724472     0.92800
O11         O  0.60601235  0.38091851  0.50417013    -0.80800
H12         H  0.51986731  0.38393590  0.51180702    -0.06100
C13         C  0.58367988  0.47728061  0.47184103     0.87800
O14         O  0.55412773  0.40171991  0.39595886    -0.75300
O15         O  0.59797183  0.42334795  0.51239861    -0.88100
O16         O  0.52827774  0.44449994  0.53443889    -0.80900
C17         C  0.56789145  0.42504244  0.59825085     0.93000
C18         C  0.59548141  0.36949093  0.52957158     0.92800
Mg19       Mg  0.53613553  0.44149726  0.44978285     1.58000
O20         O  0.54407491  0.47404420  0.41951631    -0.80800
O21         O  0.52316767  0.40777422  0.47828837    -0.75000
O22         O  0.57184538  0.41113083  0.58239403    -0.80900
O23         O  0.63766778  0.40787333  0.44520866    -0.82600
O24         O  0.57997051  0.44256466  0.34551615    -0.80900
C25         C  0.53052261  0.40108123  0.50222525     0.87300
O26         O  0.55450946  0.43198122  0.41604016    -0.88100
O27         O  0.56680103  0.45862539  0.47921336    -0.88200
O28         O  0.59320895  0.48073601  0.44385278    -0.75200
Mg29       Mg  0.56659710  0.39541070  0.53070087     1.58000
O30         O  0.56213677  0.43823537  0.58392758    -0.82600
H31         H  0.56193701  0.36715056  0.43495301    -0.06300
O32         O  0.60409647  0.44376696  0.41414426    -0.87900
H33         H  0.63324411  0.47376614  0.41907083    -0.06100
H34         H  0.52580549  0.40487215  0.39914327    -0.06300
C35         C  0.62280715  0.45632003  0.42767719     0.87200
C36         C  0.56929895  0.38011615  0.45387900     0.87800
C37         C  0.54405227  0.41272340  0.40341809     0.87900
H38         H  0.59084105  0.49083099  0.48994130    -0.06300
O39         O  0.60055184  0.45498390  0.53069851    -0.75300
Mg40       Mg  0.58551267  0.45979327  0.39612579     1.58000
H41         H  0.62744953  0.44953307  0.52901506    -0.06300
C42         C  0.64122302  0.41034286  0.41452425     0.92900
O43         O  0.59438590  0.41922944  0.34396269    -0.82600
C44         C  0.58603392  0.43022827  0.32970346     0.92900
O45         O  0.58345546  0.37495351  0.54728474    -0.82500
Mg46       Mg  0.56383058  0.44821234  0.52996797     1.58200
O47         O  0.62807962  0.41328588  0.39485133    -0.80900
O48         O  0.51650770  0.45073899  0.48605871    -0.82600
O49         O  0.58469828  0.39799289  0.94725176    -0.88200
C50         C  0.60985107  0.44225552  0.02406857     0.87900
Mg51       Mg  0.58852206  0.40854854  0.89700328     1.58100
O52         O  0.55036762  0.41453675  0.01515629    -0.87900
O53         O  0.55743512  0.37639270  0.98200978    -0.75200
C54         C  0.55343187  0.48447185  0.89365799     0.92900
O55         O  0.62867272  0.44834720  0.95083026    -0.75000
O56         O  0.56657207  0.47885561  0.87934599    -0.82500
Mg57       Mg  0.61474357  0.41365600  0.97736112     1.58000
C58         C  0.51686565  0.45092582  0.02168849     0.92800
O59         O  0.60358185  0.37916332  0.00251874    -0.80800
H60         H  0.51980419  0.38577388  0.01383777    -0.06100
C61         C  0.58495044  0.47855385  0.97320409     0.87800
O62         O  0.55169118  0.40261585  0.89742302    -0.75300
O63         O  0.59781234  0.42301853  0.01197220    -0.88100
O64         O  0.53073725  0.44672265  0.03726269    -0.80900
C65         C  0.56956214  0.42588490  0.09877115     0.93000
C66         C  0.59346767  0.36821778  0.02847286     0.92800
Mg67       Mg  0.53645963  0.44388265  0.95260142     1.58000
O68         O  0.54490100  0.47666975  0.92204328    -0.80800
O69         O  0.52317164  0.41002208  0.98101439    -0.75000
O70         O  0.57335918  0.41192775  0.08280282    -0.80900
O71         O  0.63428710  0.40538795  0.94232083    -0.82600
O72         O  0.57835040  0.44387310  0.84623483    -0.80900
C73         C  0.53068353  0.40285071  0.00416662     0.87300
O74         O  0.55363108  0.43357961  0.91772723    -0.88100
O75         O  0.56781521  0.46017843  0.98081549    -0.88200
O76         O  0.59409223  0.48170383  0.94498469    -0.75200
Mg77       Mg  0.56642827  0.39583385  0.03118004     1.58000
O78         O  0.56374496  0.43906856  0.08465879    -0.82600
H79         H  0.55894700  0.36686537  0.93522883    -0.06300
O80         O  0.60267794  0.44344885  0.91391803    -0.87900
H81         H  0.63251234  0.47285553  0.91812160    -0.06100
H82         H  0.52413534  0.40692194  0.90199703    -0.06300
C83         C  0.62174376  0.45548342  0.92681709     0.87200
C84         C  0.56694646  0.37987205  0.95399813     0.87800
C85         C  0.54240717  0.41427325  0.90542950     0.87900
H86         H  0.59269872  0.49207412  0.99129938    -0.06300
O87         O  0.60178857  0.45516914  0.03061899    -0.75300
Mg88       Mg  0.58499349  0.46067040  0.89720746     1.58000
H89         H  0.62795296  0.44864745  0.02776383    -0.06300
C90         C  0.63751921  0.40777461  0.91157179     0.92900
O91         O  0.59035900  0.41862196  0.84330177    -0.82600
C92         C  0.58301872  0.43074921  0.82973651     0.92900
O93         O  0.58255529  0.37460286  0.04696087    -0.82500
Mg94       Mg  0.56545179  0.44947891  0.03124047     1.58200
O95         O  0.62458381  0.41137909  0.89234955    -0.80900
O96         O  0.51771418  0.45357404  0.99052407    -0.82600
O97         O  0.39483451  0.58163669  0.21943832    -0.88200
C98         C  0.43896317  0.60589465  0.14280373     0.87900
Mg99       Mg  0.40543757  0.58639757  0.26945445     1.58100
O100        O  0.41199613  0.54657850  0.15316041    -0.87900
O101        O  0.37353679  0.55332594  0.18585537    -0.75200
C102        C  0.48153702  0.55159538  0.27690814     0.92900
O103        O  0.44524862  0.62595268  0.21530348    -0.75000
O104        O  0.47580810  0.56482879  0.29071578    -0.82500
Mg105      Mg  0.41055846  0.61140464  0.18865410     1.58000
C106        C  0.44925576  0.51384552  0.14926373     0.92800
O107        O  0.37657190  0.59989296  0.16325219    -0.80800
H108        H  0.38354842  0.51577063  0.15456683    -0.06100
C109        C  0.47603456  0.58213484  0.19564267     0.87800
O110        O  0.39974796  0.54964135  0.27074697    -0.75300
O111        O  0.41980186  0.59383754  0.15506486    -0.88100
O112        O  0.44494320  0.52738243  0.13290939    -0.80900
C113        C  0.42310597  0.56519569  0.06892623     0.93000
C114        C  0.36489757  0.58885030  0.13831909     0.92800
Mg115      Mg  0.44139373  0.53397562  0.21713629     1.58000
O116        O  0.47397579  0.54297807  0.24848450    -0.80800
O117        O  0.40769034  0.51992530  0.18815467    -0.75000
O118        O  0.40872551  0.56841931  0.08485618    -0.80900
O119        O  0.40196575  0.63154538  0.22252942    -0.82600
O120        O  0.44015761  0.57676637  0.32116560    -0.80900
C121        C  0.40050285  0.52697328  0.16444479     0.87300
O122        O  0.43071913  0.55144157  0.25081415    -0.88100
O123        O  0.45764573  0.56497486  0.18807742    -0.88200
O124        O  0.47908322  0.59155917  0.22365461    -0.75200
Mg125      Mg  0.39271099  0.56186705  0.13661862     1.58000
O126        O  0.43663119  0.55983092  0.08321353    -0.82600
H127        H  0.36402884  0.55570429  0.23226711    -0.06300
O128        O  0.44039186  0.60037661  0.25278302    -0.87900
H129        H  0.46975004  0.63023185  0.24836179    -0.06100
H130        H  0.40425746  0.52214348  0.26741827    -0.06300
C131        C  0.45240618  0.61931965  0.23961588     0.87200
C132        C  0.37690169  0.56351123  0.21330238     0.87800
C133        C  0.41147045  0.54032504  0.26327958     0.87900
H134        H  0.48967291  0.58961852  0.17771653    -0.06300
O135        O  0.45213240  0.59804351  0.13684902    -0.75300
Mg136      Mg  0.45762839  0.58300582  0.27098217     1.58000
H137        H  0.44508937  0.62388313  0.13851597    -0.06300
C138        C  0.40408850  0.63484678  0.25329074     0.92900
O139        O  0.41562370  0.58971206  0.32282067    -0.82600
C140        C  0.42727392  0.58208442  0.33698074     0.92900
O141        O  0.37049566  0.57692997  0.12061071    -0.82500
Mg142      Mg  0.44701475  0.56196180  0.13731972     1.58200
O143        O  0.40775728  0.62209784  0.27272033    -0.80900
O144        O  0.45163292  0.51504040  0.18047758    -0.82600
O145        O  0.39828435  0.58365249  0.71930619    -0.88200
C146        C  0.44227759  0.60937950  0.64214863     0.87900
Mg147      Mg  0.40897044  0.58778458  0.76955226     1.58100
O148        O  0.41584895  0.54998096  0.65129055    -0.87900
O149        O  0.37712750  0.55600639  0.68477382    -0.75200
C150        C  0.48596671  0.55425963  0.77265018     0.92900
O151        O  0.44812442  0.62817778  0.71578718    -0.75000
O152        O  0.48023020  0.56724522  0.78718704    -0.82500
Mg153      Mg  0.41336340  0.61367086  0.68912752     1.58000
C154        C  0.45325271  0.51757124  0.64492487     0.92800
O155        O  0.37892640  0.60190927  0.66363402    -0.80800
H156        H  0.38746671  0.51912060  0.65173420    -0.06100
C157        C  0.47961741  0.58567549  0.69344528     0.87800
O158        O  0.40351511  0.55115465  0.76937357    -0.75300
O159        O  0.42316760  0.59705264  0.65442429    -0.88100
O160        O  0.44928017  0.53152848  0.62915095    -0.80900
C161        C  0.42619124  0.56851639  0.56775500     0.93000
C162        C  0.36802741  0.59140355  0.63783715     0.92800
Mg163      Mg  0.44530547  0.53680766  0.71381943     1.58000
O164        O  0.47802669  0.54565452  0.74435792    -0.80800
O165        O  0.41149231  0.52284615  0.68524899    -0.75000
O166        O  0.41198578  0.57187623  0.58381081    -0.80900
O167        O  0.40446768  0.63294824  0.72426067    -0.82600
O168        O  0.44430871  0.57798911  0.82080325    -0.80900
C169        C  0.40436950  0.53019500  0.66186994     0.87300
O170        O  0.43463008  0.55372622  0.74860609    -0.88100
O171        O  0.46149327  0.56828489  0.68561280    -0.88200
O172        O  0.48248159  0.59467962  0.72174949    -0.75200
Mg173      Mg  0.39638986  0.56516658  0.63554384     1.58000
O174        O  0.44010817  0.56363255  0.58178052    -0.82600
H175        H  0.36746362  0.55746735  0.73146841    -0.06300
O176        O  0.44381685  0.60240078  0.75271102    -0.87900
H177        H  0.47288317  0.63254903  0.74843614    -0.06100
H178        H  0.40843906  0.52399806  0.76454454    -0.06300
C179        C  0.45554426  0.62149967  0.73976989     0.87200
C180        C  0.38040229  0.56562775  0.71266861     0.87800
C181        C  0.41543692  0.54221305  0.76110365     0.87900
H182        H  0.49316323  0.59377085  0.67546223    -0.06300
O183        O  0.45555306  0.60174239  0.63559822    -0.75300
Mg184      Mg  0.46141049  0.58514661  0.76955019     1.58000
H185        H  0.44824637  0.62738055  0.63829682    -0.06300
C186        C  0.40761553  0.63632944  0.75494122     0.92900
O187        O  0.41925495  0.59024836  0.82339397    -0.82600
C188        C  0.43125921  0.58285264  0.83721416     0.92900
O189        O  0.37445786  0.58032156  0.61982991    -0.82500
Mg190      Mg  0.45083590  0.56575674  0.63511617     1.58200
O191        O  0.41167712  0.62352615  0.77368153    -0.80900
O192        O  0.45530076  0.51817293  0.67618467    -0.82600
O193        O  0.18782866  0.60443625  0.05391127    -0.88200
C194        C  0.16847904  0.56184417  0.97528212     0.87900
Mg195      Mg  0.18235498  0.59332053  0.10401522     1.58100
O196        O  0.13582467  0.58818757  0.98576318    -0.87900
O197        O  0.18106289  0.62600424  0.02027066    -0.75200
C198        C  0.07144633  0.51724602  0.10855647     0.92900
O199        O  0.18140930  0.55443172  0.04762783    -0.75000
O200        O  0.09046444  0.52292397  0.12251315    -0.82500
Mg201      Mg  0.20198361  0.58964652  0.02236036     1.58000
C202        C  0.06525295  0.54996208  0.98091950     0.92800
O203        O  0.22466096  0.62465871  0.99878939    -0.80800
H204        H  0.13365055  0.61658960  0.98829859    -0.06100
C205        C  0.10764875  0.52394787  0.02785073     0.87800
O206        O  0.15143264  0.59921378  0.10559228    -0.75300
O207        O  0.17542821  0.58080780  0.98801129    -0.88100
O208        O  0.08307871  0.55424027  0.96470990    -0.80900
C209        C  0.14308416  0.57750592  0.90169308     0.93000
C210        C  0.22556469  0.63654432  0.97387669     0.92800
Mg211      Mg  0.09393747  0.55814332  0.04973218     1.58000
O212        O  0.07028413  0.52524493  0.08046638    -0.80800
O213        O  0.11379362  0.59208084  0.02143909    -0.75000
O214        O  0.16088550  0.59224443  0.91741770    -0.80900
O215        O  0.23040651  0.59704521  0.05657559    -0.82600
O216        O  0.13806361  0.55803139  0.15557988    -0.80900
C217        C  0.12785297  0.59951712  0.99765193     0.87300
O218        O  0.12221451  0.56857350  0.08425884    -0.88100
O219        O  0.10877402  0.54228782  0.02051930    -0.88200
O220        O  0.11396949  0.52072597  0.05592623    -0.75200
Mg221      Mg  0.17062734  0.60783801  0.96995986     1.58000
O222        O  0.12439694  0.56369806  0.91617365    -0.82600
H223        H  0.19224905  0.63487485  0.06729188    -0.06300
O224        O  0.16126808  0.55871417  0.08641874    -0.87900
H225        H  0.16127429  0.52935636  0.07995960    -0.06100
H226        H  0.11937582  0.59469581  0.10171962    -0.06300
C227        C  0.16786380  0.54689672  0.07211241     0.87200
C228        C  0.18749407  0.62229177  0.04799169     0.87800
C229        C  0.13036170  0.58760107  0.09744590     0.87900
H230        H  0.10162178  0.51048935  0.00965245    -0.06300
O231        O  0.14739688  0.54843913  0.96925048    -0.75300
Mg232      Mg  0.12677540  0.54142613  0.10402805     1.58000
H233        H  0.18052718  0.55606225  0.97074627    -0.06300
C234        C  0.23084314  0.59266065  0.08679460     0.92900
O235        O  0.17561790  0.58284510  0.15772523    -0.82600
C236        C  0.15634443  0.57087966  0.17180339     0.92900
O237        O  0.20836061  0.63054013  0.95489000    -0.82500
Mg238      Mg  0.11618538  0.55307830  0.96981377     1.58200
O239        O  0.21475601  0.58927415  0.10646746    -0.80900
O240        O  0.06446380  0.54812276  0.01225601    -0.82600
O241        O  0.18691425  0.59966871  0.55460170    -0.88200
C242        C  0.16742028  0.55767123  0.47575675     0.87900
Mg243      Mg  0.18133282  0.58784730  0.60443544     1.58100
O244        O  0.13532560  0.58436070  0.48760687    -0.87900
O245        O  0.18074251  0.62201314  0.52187753    -0.75200
C246        C  0.07027841  0.51272825  0.60933683     0.92900
O247        O  0.18076339  0.54991381  0.54703273    -0.75000
O248        O  0.08928933  0.51766597  0.62268894    -0.82500
Mg249      Mg  0.20132627  0.58546341  0.52237261     1.58000
C250        C  0.06480727  0.54707537  0.48260058     0.92800
O251        O  0.22426468  0.62086353  0.49902588    -0.80800
H252        H  0.13353003  0.61292154  0.49127949    -0.06100
C253        C  0.10606861  0.51930346  0.52771944     0.87800
O254        O  0.15040599  0.59360863  0.60709369    -0.75300
O255        O  0.17472456  0.57675626  0.48833629    -0.88100
O256        O  0.08253029  0.55132049  0.46614043    -0.80900
C257        C  0.14272272  0.57474044  0.40298711     0.93000
C258        C  0.22510092  0.63270389  0.47404809     0.92800
Mg259      Mg  0.09314626  0.55378807  0.55109017     1.58000
O260        O  0.06910812  0.52082271  0.58133272    -0.80800
O261        O  0.11339749  0.58801252  0.52372967    -0.75000
O262        O  0.16034391  0.58917784  0.41916827    -0.80900
O263        O  0.22969616  0.59292031  0.55633316    -0.82600
O264        O  0.13686766  0.55201138  0.65566566    -0.80900
C265        C  0.12752453  0.59567662  0.50004839     0.87300
O266        O  0.12123439  0.56329211  0.58526281    -0.88100
O267        O  0.10751521  0.53788547  0.52105502    -0.88200
O268        O  0.11244053  0.51562238  0.55546323    -0.75200
Mg269      Mg  0.17007082  0.60413248  0.47143565     1.58000
O270        O  0.12388711  0.56071614  0.41699651    -0.82600
H271        H  0.19188553  0.63012052  0.56905656    -0.06300
O272        O  0.16025389  0.55331103  0.58615007    -0.87900
H273        H  0.16046126  0.52416713  0.57839960    -0.06100
H274        H  0.11827140  0.58896917  0.60419937    -0.06300
C275        C  0.16700388  0.54183205  0.57124739     0.87200
C276        C  0.18695472  0.61777587  0.54938055     0.87800
C277        C  0.12931656  0.58204902  0.59916487     0.87900
H278        H  0.09974608  0.50604339  0.50918456    -0.06300
O279        O  0.14625830  0.54443793  0.46996705    -0.75300
Mg280      Mg  0.12558314  0.53583078  0.60394657     1.58000
H281        H  0.17924008  0.55160949  0.47118863    -0.06300
C282        C  0.23061055  0.58896592  0.58657159     0.92900
O283        O  0.17447069  0.57662609  0.65779078    -0.82600
C284        C  0.15515136  0.56484811  0.67185112     0.92900
O285        O  0.20770228  0.62676992  0.45553148    -0.82500
Mg286      Mg  0.11532163  0.54947885  0.47065748     1.58200
O287        O  0.21433464  0.58476451  0.60639860    -0.80900
O288        O  0.06395454  0.54474960  0.51386303    -0.82600
O289        O  0.81363763  0.39413289  0.30579832    -0.88200
C290        C  0.83052304  0.43573736  0.22660991     0.87900
Mg291      Mg  0.82021185  0.40665753  0.35514352     1.58100
O292        O  0.86467968  0.41099314  0.23777667    -0.87900
O293        O  0.82021233  0.37229236  0.27308607    -0.75200
C294        C  0.93071025  0.48535623  0.35649689     0.92900
O295        O  0.81766831  0.44312455  0.29821834    -0.75000
O296        O  0.91178426  0.47970573  0.37050738    -0.82500
Mg297      Mg  0.79768421  0.40736679  0.27421971     1.58000
C298        C  0.93543596  0.45112865  0.23023090     0.92800
O299        O  0.77529689  0.37190162  0.25129498    -0.80800
H300        H  0.86794464  0.38323638  0.24153859    -0.06100
C301        C  0.89267133  0.47623392  0.27605241     0.87800
O302        O  0.85203402  0.40221822  0.35675787    -0.75300
O303        O  0.82401043  0.41687791  0.23965049    -0.88100
O304        O  0.91706726  0.44570733  0.21432489    -0.80900
C305        C  0.85491097  0.41971858  0.15339317     0.93000
C306        C  0.77457797  0.36046545  0.22608982     0.92800
Mg307      Mg  0.90802457  0.44347198  0.29948406     1.58000
O308        O  0.93165705  0.47709279  0.32867467    -0.80800
O309        O  0.88830197  0.40886059  0.27291020    -0.75000
O310        O  0.83765577  0.40531017  0.17011468    -0.80900
O311        O  0.76943312  0.39873062  0.30906158    -0.82600
O312        O  0.86508034  0.44439016  0.40528143    -0.80900
C313        C  0.87350438  0.40042974  0.24995844     0.87300
O314        O  0.88042339  0.43308562  0.33457496    -0.88100
O315        O  0.89186875  0.45795050  0.26972348    -0.88200
O316        O  0.88658753  0.47982117  0.30388856    -0.75200
Mg317      Mg  0.82957228  0.39026811  0.22251512     1.58000
O318        O  0.87403930  0.43376085  0.16675243    -0.82600
H319        H  0.80978338  0.36406439  0.32046632    -0.06300
O320        O  0.84007274  0.44103189  0.33586277    -0.87900
H321        H  0.83830267  0.46943248  0.32854282    -0.06100
H322        H  0.88446912  0.40780296  0.35298290    -0.06300
C323        C  0.83219745  0.45184588  0.32156558     0.87200
C324        C  0.81411308  0.37630822  0.30066282     0.87800
C325        C  0.87297520  0.41430344  0.34840208     0.87900
H326        H  0.89815461  0.48927506  0.25717146    -0.06300
O327        O  0.85144501  0.44931106  0.21986849    -0.75300
Mg328      Mg  0.87503439  0.45991921  0.35285993     1.58000
H329        H  0.81822258  0.44127002  0.22229243    -0.06300
C330        C  0.76946931  0.40340043  0.33917971     0.92900
O331        O  0.82779923  0.41865748  0.40801929    -0.82600
C332        C  0.84705409  0.43145656  0.42182229     0.92900
O333        O  0.79189429  0.36686124  0.20747923    -0.82500
Mg334      Mg  0.88333977  0.44575672  0.21981716     1.58200
O335        O  0.78670260  0.40877429  0.35790905    -0.80900
O336        O  0.93677325  0.45359361  0.26144156    -0.82600
O337        O  0.81265490  0.39567438  0.80507483    -0.88200
C338        C  0.83035136  0.43800719  0.72620007     0.87900
Mg339      Mg  0.81812277  0.40700630  0.85493951     1.58100
O340        O  0.86464039  0.41345991  0.73799717    -0.87900
O341        O  0.81988978  0.37439000  0.77215776    -0.75200
C342        C  0.92867226  0.48659055  0.85947190     0.92900
O343        O  0.81686785  0.44478761  0.79833751    -0.75000
O344        O  0.90956460  0.48030241  0.87343884    -0.82500
Mg345      Mg  0.79729966  0.40943803  0.77321528     1.58000
C346        C  0.93516509  0.45389765  0.73280687     0.92800
O347        O  0.77535724  0.37432945  0.74962967    -0.80800
H348        H  0.86810124  0.38580928  0.74159512    -0.06100
C349        C  0.89116990  0.47801936  0.77845972     0.87800
O350        O  0.85022865  0.40300785  0.85703100    -0.75300
O351        O  0.82403959  0.41921360  0.73929275    -0.88100
O352        O  0.91699073  0.44867666  0.71656152    -0.80900
C353        C  0.85611231  0.42294866  0.65341579     0.93000
C354        C  0.77481049  0.36286400  0.72459860     0.92800
Mg355      Mg  0.90685353  0.44538839  0.80132171     1.58000
O356        O  0.92991555  0.47881345  0.83139163    -0.80800
O357        O  0.88776459  0.41109174  0.77384457    -0.75000
O358        O  0.83872776  0.40814416  0.66959530    -0.80900
O359        O  0.76846606  0.40042796  0.80695277    -0.82600
O360        O  0.86218445  0.44325395  0.90633006    -0.80900
C361        C  0.87339093  0.40287103  0.75034442     0.87300
O362        O  0.87867733  0.43419006  0.83564236    -0.88100
O363        O  0.89079577  0.46000671  0.77153521    -0.88200
O364        O  0.88476867  0.48106267  0.80643570    -0.75200
Mg365      Mg  0.82979629  0.39274116  0.72190756     1.58000
O366        O  0.87489143  0.43720390  0.66743813    -0.82600
H367        H  0.80886178  0.36553693  0.81918387    -0.06300
O368        O  0.83806481  0.44183579  0.83720594    -0.87900
H369        H  0.83657982  0.47041373  0.83017729    -0.06100
H370        H  0.88279862  0.40888798  0.85378737    -0.06300
C371        C  0.83062457  0.45295497  0.82265398     0.87200
C372        C  0.81335485  0.37800093  0.79965248     0.87800
C373        C  0.87123489  0.41528835  0.84909280     0.87900
H374        H  0.89661545  0.49133153  0.76000322    -0.06300
O375        O  0.85127942  0.45187520  0.71999423    -0.75300
Mg376      Mg  0.87285435  0.46041618  0.85488516     1.58000
H377        H  0.81785650  0.44322370  0.72142699    -0.06300
C378        C  0.76735932  0.40345988  0.83740658     0.92900
O379        O  0.82476136  0.41778913  0.90848593    -0.82600
C380        C  0.84408761  0.42991834  0.92252184     0.92900
O381        O  0.79220894  0.36929433  0.70612426    -0.82500
Mg382      Mg  0.88323551  0.44852112  0.72104697     1.58200
O383        O  0.78402385  0.40817510  0.85702285    -0.80900
O384        O  0.93620994  0.45617183  0.76404340    -0.82600
O385        O  0.60207943  0.18666843  0.11011942    -0.88200
C386        C  0.55804906  0.16704774  0.18657866     0.87900
Mg387      Mg  0.59078238  0.18085794  0.06020664     1.58100
O388        O  0.58472529  0.13454157  0.17901564    -0.87900
O389        O  0.62295208  0.17945200  0.14454342    -0.75200
C390        C  0.51544021  0.06967764  0.05679102     0.92900
O391        O  0.55213105  0.18104628  0.11472083    -0.75000
O392        O  0.52087649  0.08856511  0.04265642    -0.82500
Mg393      Mg  0.58721792  0.20111217  0.14083150     1.58000
C394        C  0.54686110  0.06391130  0.18463536     0.92800
O395        O  0.62213449  0.22350766  0.16512099    -0.80800
H396        H  0.61332082  0.13263287  0.17838112    -0.06100
C397        C  0.52097614  0.10571652  0.13634387     0.87800
O398        O  0.59671155  0.14987112  0.05910814    -0.75300
O399        O  0.57733729  0.17418620  0.17483439    -0.88100
O400        O  0.55071538  0.08161468  0.20089713    -0.80900
C401        C  0.57318741  0.14286177  0.26216288     0.93000
C402        C  0.63326010  0.22418586  0.19082356     0.92800
Mg403      Mg  0.55594188  0.09257688  0.11567570     1.58000
O404        O  0.52350818  0.06872821  0.08487523    -0.80800
O405        O  0.58955518  0.11256177  0.14448625    -0.75000
O406        O  0.58768083  0.16036174  0.24582919    -0.80900
O407        O  0.59589593  0.22975443  0.10669719    -0.82600
O408        O  0.55611486  0.13577646  0.00966006    -0.80900
C409        C  0.59641178  0.12666132  0.16820319     0.87300
O410        O  0.56633108  0.12077019  0.08110096    -0.88100
O411        O  0.53930036  0.10692652  0.14406948    -0.88200
O412        O  0.51802592  0.11227796  0.10831280    -0.75200
Mg413      Mg  0.60403139  0.16940713  0.19431216     1.58000
O414        O  0.55973017  0.12369907  0.24849476    -0.82600
H415        H  0.63240020  0.19040765  0.09757710    -0.06300
O416        O  0.55631246  0.15974105  0.07791667    -0.87900
H417        H  0.52718395  0.16048271  0.08239690    -0.06100
H418        H  0.59244503  0.11793770  0.06357517    -0.06300
C419        C  0.54456589  0.16689907  0.09092095     0.87200
C420        C  0.61967573  0.18594143  0.11657670     0.87800
C421        C  0.58528548  0.12888239  0.06771908     0.87900
H422        H  0.50733749  0.09953351  0.15425206    -0.06300
O423        O  0.54484835  0.14601186  0.19320233    -0.75300
Mg424      Mg  0.53913702  0.12499204  0.06073428     1.58000
H425        H  0.55185970  0.17888961  0.18987863    -0.06300
C426        C  0.59135815  0.23026937  0.07658580     0.92900
O427        O  0.57986192  0.17355023  0.00707582    -0.82600
C428        C  0.56855711  0.15406807  0.99333206     0.92900
O429        O  0.62645465  0.20694156  0.20985361    -0.82500
Mg430      Mg  0.54958272  0.11482395  0.19465618     1.58200
O431        O  0.58702794  0.21374990  0.05708061    -0.80900
O432        O  0.54579577  0.06333646  0.15323224    -0.82600
O433        O  0.60261724  0.18709357  0.61069071    -0.88200
C434        C  0.55915998  0.16879319  0.68808807     0.87900
Mg435      Mg  0.59126309  0.18120793  0.56055059     1.58100
O436        O  0.58428530  0.13494130  0.67930166    -0.87900
O437        O  0.62332805  0.17960789  0.64497955    -0.75200
C438        C  0.51358752  0.07017003  0.55742460     0.92900
O439        O  0.55318820  0.18236936  0.61574542    -0.75000
O440        O  0.51930901  0.08922573  0.54354915    -0.82500
Mg441      Mg  0.58834460  0.20204241  0.64171234     1.58000
C442        C  0.54484617  0.06450324  0.68591005     0.92800
O443        O  0.62326099  0.22413735  0.66628839    -0.80800
H444        H  0.61221536  0.13186161  0.67867318    -0.06100
C445        C  0.52023505  0.10730627  0.63715361     0.87800
O446        O  0.59595696  0.14947210  0.56018607    -0.75300
O447        O  0.57829520  0.17539181  0.67615877    -0.88100
O448        O  0.54910036  0.08257613  0.70139006    -0.80900
C449        C  0.57393972  0.14305495  0.76263416     0.93000
C450        C  0.63466024  0.22473433  0.69165560     0.92800
Mg451      Mg  0.55411290  0.09254342  0.61658870     1.58000
O452        O  0.52142276  0.06897914  0.58561503    -0.80800
O453        O  0.58791464  0.11196702  0.64525634    -0.75000
O454        O  0.58887520  0.16062359  0.74685935    -0.80900
O455        O  0.59738091  0.23050361  0.60726875    -0.82600
O456        O  0.55531862  0.13604378  0.51028117    -0.80900
C457        C  0.59536102  0.12634957  0.66862858     0.87300
O458        O  0.56509617  0.12074163  0.58187414    -0.88100
O459        O  0.53836188  0.10804029  0.64470242    -0.88200
O460        O  0.51737211  0.11389617  0.60910240    -0.75200
Mg461      Mg  0.60467649  0.16974816  0.69490436     1.58000
O462        O  0.55966964  0.12449324  0.74835431    -0.82600
H463        H  0.63278449  0.19053512  0.59801338    -0.06300
O464        O  0.55656671  0.16087567  0.57831304    -0.87900
H465        H  0.52787107  0.16233361  0.58356795    -0.06100
H466        H  0.59098925  0.11729567  0.56500386    -0.06300
C467        C  0.54525267  0.16837493  0.59178111     0.87200
C468        C  0.62011171  0.18617811  0.61705648     0.87800
C469        C  0.58411637  0.12852023  0.56881749     0.87900
H470        H  0.50673168  0.10154587  0.65522520    -0.06300
O471        O  0.54535905  0.14780794  0.69417719    -0.75300
Mg472      Mg  0.53846335  0.12588503  0.56144548     1.58000
H473        H  0.55358737  0.18108683  0.69183325    -0.06300
C474        C  0.59392515  0.23170727  0.57690894     0.92900
O475        O  0.58010575  0.17357854  0.50691190    -0.82600
C476        C  0.56806158  0.15402226  0.49350167     0.92900
O477        O  0.62810772  0.20734711  0.71039075    -0.82500
Mg478      Mg  0.54906365  0.11604896  0.69505806     1.58200
O479        O  0.58938039  0.21525936  0.55708039    -0.80900
O480        O  0.54349665  0.06332675  0.65454644    -0.82600
O481        O  0.39699469  0.81160860  0.36366685    -0.88200
C482        C  0.43901167  0.82974378  0.44281019     0.87900
Mg483      Mg  0.40873122  0.81745065  0.31411802     1.58100
O484        O  0.41363660  0.86324477  0.43108894    -0.87900
O485        O  0.37523461  0.81846098  0.39611532    -0.75200
C486        C  0.48580271  0.92865744  0.31016277     0.92900
O487        O  0.44648029  0.81672024  0.37102948    -0.75000
O488        O  0.48033676  0.90975642  0.29612060    -0.82500
Mg489      Mg  0.41094087  0.79646381  0.39560338     1.58000
C490        C  0.45280553  0.93393004  0.43686896     0.92800
O491        O  0.37568241  0.77392919  0.41854542    -0.80800
H492        H  0.38566346  0.86618174  0.42800893    -0.06100
C493        C  0.47851564  0.89135924  0.39119699     0.87800
O494        O  0.40382935  0.84897651  0.31185220    -0.75300
O495        O  0.42010952  0.82301801  0.42973854    -0.88100
O496        O  0.44810816  0.91592803  0.45321296    -0.80900
C497        C  0.42283556  0.85471536  0.51533387     0.93000
C498        C  0.36376505  0.77306821  0.44318225     0.92800
Mg499      Mg  0.44486213  0.90573967  0.36824677     1.58000
O500        O  0.47791750  0.92944050  0.33835562    -0.80800
O501        O  0.41064292  0.88612307  0.39559429    -0.75000
O502        O  0.40818650  0.83730346  0.49900869    -0.80900
O503        O  0.40248769  0.76781768  0.36162833    -0.82600
O504        O  0.44502116  0.86193821  0.26284590    -0.80900
C505        C  0.40273759  0.87174430  0.41906040     0.87300
O506        O  0.43448084  0.87774769  0.33376108    -0.88100
O507        O  0.46019633  0.89036829  0.39799599    -0.88200
O508        O  0.48189222  0.88522908  0.36323474    -0.75200
Mg509      Mg  0.39316217  0.82826768  0.44660347     1.58000
O510        O  0.43714819  0.87354740  0.50155405    -0.82600
H511        H  0.36684867  0.80754614  0.34895728    -0.06300
O512        O  0.44344665  0.83796432  0.33233439    -0.87900
H513        H  0.47230945  0.83707824  0.33989115    -0.06100
H514        H  0.40886462  0.88122120  0.31525874    -0.06300
C515        C  0.45471233  0.83074971  0.34703913     0.87200
C516        C  0.37916271  0.81207719  0.36873238     0.87800
C517        C  0.41563035  0.86997317  0.32002217     0.87900
H518        H  0.49181713  0.89711544  0.40974627    -0.06300
O519        O  0.45257728  0.85075844  0.44899340    -0.75300
Mg520      Mg  0.46143943  0.87291342  0.31469595     1.58000
H521        H  0.44461182  0.81754147  0.44753999    -0.06300
C522        C  0.40548842  0.76682403  0.33114121     0.92900
O523        O  0.42012260  0.82436065  0.26114515    -0.82600
C524        C  0.43233351  0.84353560  0.24685354     0.92900
O525        O  0.36973679  0.79038720  0.46172239    -0.82500
Mg526      Mg  0.44862120  0.88238713  0.44829978     1.58200
O527        O  0.41034136  0.78362427  0.31178376    -0.80900
O528        O  0.45494292  0.93488655  0.40561505    -0.82600
O529        O  0.39781315  0.81197496  0.86375666    -0.88200
C530        C  0.44152247  0.83040308  0.94094257     0.87900
Mg531      Mg  0.40879022  0.81804383  0.81372866     1.58100
O532        O  0.41510657  0.86315194  0.93228992    -0.87900
O533        O  0.37662890  0.81842097  0.89809964    -0.75200
C534        C  0.48515361  0.92899800  0.80999588     0.92900
O535        O  0.44759547  0.81728419  0.86868328    -0.75000
O536        O  0.48001922  0.91017460  0.79602942    -0.82500
Mg537      Mg  0.41256974  0.79699815  0.89447000     1.58000
C538        C  0.45290532  0.93329036  0.93761520     0.92800
O539        O  0.37765351  0.77458999  0.91851120    -0.80800
H540        H  0.38660216  0.86521031  0.93030020    -0.06100
C541        C  0.47901948  0.89183970  0.89009824     0.87800
O542        O  0.40324457  0.84913486  0.81231643    -0.75300
O543        O  0.42234662  0.82355080  0.92875684    -0.88100
O544        O  0.44893209  0.91546700  0.95379970    -0.80900
C545        C  0.42698025  0.85471140  0.01560165     0.93000
C546        C  0.36658123  0.77374980  0.94418111     0.92800
Mg547      Mg  0.44447117  0.90553869  0.86863570     1.58000
O548        O  0.47690431  0.92969588  0.83791825    -0.80800
O549        O  0.41075086  0.88531992  0.89698500    -0.75000
O550        O  0.41224902  0.83714730  0.99964441    -0.80900
O551        O  0.40408169  0.76849745  0.86002879    -0.82600
O552        O  0.44454367  0.86273309  0.76263923    -0.80900
C553        C  0.40360263  0.87113642  0.92073163     0.87300
O554        O  0.43414907  0.87788693  0.83378073    -0.88100
O555        O  0.46068542  0.89062701  0.89739886    -0.88200
O556        O  0.48214865  0.88566634  0.86205114    -0.75200
Mg557      Mg  0.39572938  0.82831372  0.94794015     1.58000
O558        O  0.44027881  0.87378803  0.00156909    -0.82600
H559        H  0.36727940  0.80782110  0.85097895    -0.06300
O560        O  0.44357246  0.83866617  0.83129260    -0.87900
H561        H  0.47259968  0.83776483  0.83653986    -0.06100
H562        H  0.40833404  0.88137546  0.81613178    -0.06300
C563        C  0.45520527  0.83139715  0.84474164     0.87200
C564        C  0.38004563  0.81231720  0.87009160     0.87800
C565        C  0.41515899  0.87012790  0.82044349     0.87900
H566        H  0.49251427  0.89771816  0.90835917    -0.06300
O567        O  0.45496007  0.85140649  0.94732846    -0.75300
Mg568      Mg  0.46125799  0.87344827  0.81405701     1.58000
H569        H  0.44741854  0.81834518  0.94476769    -0.06300
C570        C  0.40798181  0.76846794  0.82962407     0.92900
O571        O  0.41925179  0.82529423  0.76023520    -0.82600
C572        C  0.43145830  0.84463103  0.74633808     0.92900
O573        O  0.37344404  0.79078189  0.96347763    -0.82500
Mg574      Mg  0.45030363  0.88260861  0.94795771     1.58200
O575        O  0.41197517  0.78526046  0.81078209    -0.80900
O576        O  0.45449754  0.93430559  0.90630859    -0.82600
C577        C  0.43420124  0.86151942  0.60176467     0.20500
C578        C  0.44579185  0.87270131  0.63068008    -0.39300
C579        C  0.43770121  0.85983956  0.65971928     0.19500
C580        C  0.41951850  0.83749878  0.65996075     0.22100
C581        C  0.40788069  0.82631181  0.63101637    -0.39900
C582        C  0.41594456  0.83921505  0.60195001     0.20900
N583        N  0.43876002  0.86996399  0.57099973    -0.33100
C584        C  0.42333878  0.85291135  0.55139353    -0.10700
C585        C  0.40876173  0.83346848  0.56981186    -0.29500
N586        N  0.41512955  0.82908053  0.69078392    -0.46100
C587        C  0.43053499  0.84626040  0.71028560    -0.05400
C588        C  0.44491980  0.86569438  0.69177701    -0.22700
H589        H  0.46005759  0.89013982  0.63057565     0.19100
H590        H  0.39363240  0.80886291  0.63111322     0.17900
H591        H  0.39498256  0.81724575  0.56083938     0.14100
H592        H  0.45870863  0.88195321  0.70062884     0.14000
H593        H  0.45174336  0.88623749  0.56375472     0.32200
H594        H  0.40227137  0.81277581  0.69814003     0.34900
C595        C  0.43953828  0.85786288  0.16127104     0.20500
C596        C  0.44814606  0.87221624  0.13364985    -0.39300
C597        C  0.43910031  0.86177636  0.10323485     0.19500
C598        C  0.42278174  0.83876163  0.10047765     0.22100
C599        C  0.41429839  0.82432923  0.12811260    -0.39900
C600        C  0.42328919  0.83481573  0.15859541     0.20900
N601        N  0.44486302  0.86384827  0.19295254    -0.33100
C602        C  0.43192667  0.84449555  0.21065991    -0.10700
C603        C  0.41828533  0.82598764  0.19008518    -0.29500
N604        N  0.41642893  0.83323071  0.06889303    -0.46100
C605        C  0.42877611  0.85289815  0.05148691    -0.05400
C606        C  0.44319058  0.87102852  0.07205112    -0.22700
H607        H  0.46068959  0.89027949  0.13573679     0.19100
H608        H  0.40139121  0.80637501  0.12608147     0.17900
H609        H  0.40615498  0.80852602  0.19723552     0.14100
H610        H  0.45482406  0.88867763  0.06515957     0.14000
H611        H  0.45645722  0.88015237  0.20198266     0.32200
H612        H  0.40430082  0.81714820  0.05979663     0.34900
C613        C  0.51600854  0.98645706  0.77932962     0.20500
C614        C  0.52355969  0.00998235  0.77927577    -0.39300
C615        C  0.53064828  0.02108875  0.74873409     0.19500
C616        C  0.53008691  0.00968930  0.72020382     0.22100
C617        C  0.52269034  0.98614351  0.72031372    -0.39900
C618        C  0.51576741  0.97503185  0.75099162     0.20900
N619        N  0.50643043  0.97169489  0.80454799    -0.33100
C620        C  0.49996960  0.95064807  0.79225973    -0.10700
C621        C  0.50577781  0.95210156  0.75900975    -0.29500
N622        N  0.53587739  0.02380225  0.69393613    -0.46100
C623        C  0.54020171  0.04431931  0.70597672    -0.05400
C624        C  0.53728775  0.04326642  0.74006269    -0.22700
H625        H  0.52315501  0.01883253  0.80118094     0.19100
H626        H  0.52160107  0.97697280  0.69797707     0.17900
H627        H  0.50164964  0.93806967  0.74234674     0.14100
H628        H  0.53864450  0.05664634  0.75613392     0.14000
H629        H  0.50329295  0.97554336  0.82813011     0.32200
H630        H  0.53605159  0.01953045  0.66929986     0.34900
C631        C  0.47995509  0.01289036  0.52706581     0.20500
C632        C  0.46996646  0.98895792  0.52806876    -0.39300
C633        C  0.46442669  0.97785469  0.49746115     0.19500
C634        C  0.46859113  0.98963038  0.46796759     0.22100
C635        C  0.47833381  0.01357446  0.46697893    -0.39900
C636        C  0.48374642  0.02468722  0.49765012     0.20900
N637        N  0.48896680  0.02754151  0.55248452    -0.33100
C638        C  0.49851448  0.04885659  0.53922022    -0.10700
C639        C  0.49534040  0.04773644  0.50511852    -0.29500
N640        N  0.46395520  0.97535407  0.44229672    -0.46100
C641        C  0.45685199  0.95436193  0.45560834    -0.05400
C642        C  0.45669766  0.95526562  0.48993062    -0.22700
H643        H  0.46763871  0.97975052  0.55093185     0.19100
H644        H  0.48233849  0.02297098  0.44399942     0.17900
H645        H  0.50220980  0.06190196  0.48785593     0.14100
H646        H  0.45285086  0.94149654  0.50712447     0.14000
H647        H  0.48965044  0.02332380  0.57706666     0.32200
H648        H  0.46658592  0.97983166  0.41738914     0.34900
C649        C  0.56320534  0.13872756  0.90843663     0.20500
C650        C  0.55441793  0.12441435  0.88085353    -0.39300
C651        C  0.56375580  0.13480598  0.85049798     0.19500
C652        C  0.58064353  0.15764458  0.84787342     0.22100
C653        C  0.58940372  0.17194746  0.87543818    -0.39900
C654        C  0.57996551  0.16160720  0.90574950     0.20900
N655        N  0.55703439  0.13309281  0.93998439    -0.33100
C656        C  0.56987853  0.15256885  0.95743902    -0.10700
C657        C  0.58438978  0.17071614  0.93695075    -0.29500
N658        N  0.58652731  0.16345290  0.81629402    -0.46100
C659        C  0.57320333  0.14420540  0.79866393    -0.05400
C660        C  0.55879148  0.12595829  0.81912596    -0.22700
H661        H  0.54118549  0.10657111  0.88285519     0.19100
H662        H  0.60247731  0.18984516  0.87340546     0.17900
H663        H  0.59652842  0.18819333  0.94395700     0.14100
H664        H  0.54631072  0.10861685  0.81198288     0.14000
H665        H  0.54475835  0.11704200  0.94904723     0.32200
H666        H  0.59869796  0.17955540  0.80728196     0.34900
C667        C  0.56320693  0.13599157  0.34898232     0.20500
C668        C  0.55392774  0.12422471  0.37862077    -0.39300
C669        C  0.56146972  0.13761197  0.40726622     0.19500
C670        C  0.57701738  0.16093151  0.40644049     0.22100
C671        C  0.58630910  0.17268072  0.37681679    -0.39900
C672        C  0.57882473  0.15929344  0.34819966     0.20900
N673        N  0.55901399  0.12717101  0.31844582    -0.33100
C674        C  0.57216032  0.14496523  0.29809978    -0.10700
C675        C  0.58471683  0.16528962  0.31576716    -0.29500
N676        N  0.58140532  0.16975951  0.43697611    -0.46100
C677        C  0.56857095  0.15194095  0.45744306    -0.05400
C678        C  0.55591785  0.13159324  0.43979842    -0.22700
H679        H  0.54179096  0.10598937  0.37933368     0.19100
H680        H  0.59853279  0.19089236  0.37611034     0.17900
H681        H  0.59664722  0.18214659  0.30617451     0.14100
H682        H  0.54420010  0.11469601  0.44947873     0.14000
H683        H  0.54806949  0.11006184  0.31188882     0.32200
H684        H  0.59242839  0.18685231  0.44347905     0.34900
C685        C  0.53361438  0.02048554  0.24535073     0.20500
C686        C  0.52774521  0.01086829  0.27701884    -0.39300
C687        C  0.51842058  0.98704716  0.27892562     0.19500
C688        C  0.51529774  0.97381083  0.25136461     0.22100
C689        C  0.52101876  0.98343544  0.21958744    -0.39900
C690        C  0.53027380  0.00730296  0.21765227     0.20900
N691        N  0.54109418  0.04238947  0.23694887    -0.33100
C692        C  0.54232003  0.04329377  0.20360287    -0.10700
C693        C  0.53586169  0.02171818  0.19063271    -0.29500
N694        N  0.50462827  0.95143353  0.25947482    -0.46100
C695        C  0.50061420  0.95033508  0.29233822    -0.05400
C696        C  0.50912051  0.97227704  0.30533834    -0.22700
H697        H  0.52954009  0.02109332  0.29847283     0.19100
H698        H  0.51775141  0.97299765  0.19786778     0.17900
H699        H  0.53424100  0.01697081  0.16493932     0.14100
H700        H  0.50750136  0.97672770  0.33034003     0.14000
H701        H  0.54404838  0.05568680  0.25290431     0.32200
H702        H  0.49913312  0.93765241  0.24326617     0.34900
C703        C  0.46868269  0.98873684  0.96886723     0.20500
C704        C  0.47835537  0.01262987  0.96768499    -0.39300
C705        C  0.48457819  0.02389030  0.99816658     0.19500
C706        C  0.48160094  0.01228378  0.02758589     0.22100
C707        C  0.47171653  0.98838786  0.02880227    -0.39900
C708        C  0.46536231  0.97712763  0.99836356     0.20900
N709        N  0.46346887  0.97438568  0.94321137    -0.33100
C710        C  0.45689027  0.95353220  0.95654321    -0.10700
C711        C  0.45758572  0.95454974  0.99086340    -0.29500
N712        N  0.49118999  0.02708733  0.05266715    -0.46100
C713        C  0.50028063  0.04826807  0.03912501    -0.05400
C714        C  0.49626757  0.04695215  0.00525259    -0.22700
H715        H  0.48172281  0.02187965  0.94464693     0.19100
H716        H  0.47005702  0.97933599  0.05161569     0.17900
H717        H  0.45437665  0.94091193  0.00797263     0.14100
H718        H  0.50257340  0.06100111  0.98783046     0.14000
H719        H  0.46550886  0.97875233  0.91827100     0.32200
H720        H  0.49248172  0.02306097  0.07715602     0.34900
C721        C  0.72225056  0.30940075  0.72798480     0.20500
C722        C  0.70421992  0.28996230  0.74317537    -0.39300
C723        C  0.68692461  0.27434454  0.72205263     0.19500
C724        C  0.68742760  0.27814941  0.68848905     0.22100
C725        C  0.70566979  0.29736778  0.67323101    -0.39900
C726        C  0.72319143  0.31274506  0.69426412     0.20900
N727        N  0.74049624  0.32687060  0.74269229    -0.33100
C728        C  0.75341765  0.34122463  0.71820447    -0.10700
C729        C  0.74328288  0.33297295  0.68753642    -0.29500
N730        N  0.66873143  0.26115436  0.67390800    -0.46100
C731        C  0.65636181  0.24615468  0.69814325    -0.05400
C732        C  0.66721506  0.25370830  0.72860310    -0.22700
H733        H  0.70370333  0.28722602  0.76949938     0.19100
H734        H  0.70616373  0.30013116  0.64691546     0.17900
H735        H  0.74945835  0.34095374  0.66375276     0.14100
H736        H  0.66138978  0.24537776  0.75226096     0.14000
H737        H  0.74407407  0.32887131  0.76789596     0.32200
H738        H  0.66478700  0.25963503  0.64881163     0.34900
C739        C  0.72112277  0.30780519  0.22853387     0.20500
C740        C  0.70224445  0.28902333  0.24346425    -0.39300
C741        C  0.68534559  0.27338187  0.22193581     0.19500
C742        C  0.68700065  0.27651756  0.18816179     0.22100
C743        C  0.70611841  0.29504261  0.17318359    -0.39900
C744        C  0.72322215  0.31047911  0.19470425     0.20900
N745        N  0.73913008  0.32527379  0.24364748    -0.33100
C746        C  0.75304372  0.33899558  0.21937596    -0.10700
C747        C  0.74381679  0.33027354  0.18840937    -0.29500
N748        N  0.66841861  0.25964605  0.17316273    -0.46100
C749        C  0.65501716  0.24541859  0.19744594    -0.05400
C750        C  0.66504121  0.25331927  0.22826680    -0.22700
H751        H  0.70079113  0.28681195  0.26990869     0.19100
H752        H  0.70751649  0.29730469  0.14674341     0.17900
H753        H  0.75088702  0.33771575  0.16464901     0.14100
H754        H  0.65831957  0.24555009  0.25200008     0.14000
H755        H  0.74187500  0.32769873  0.26900041     0.32200
H756        H  0.66523730  0.25765353  0.14786277     0.34900
C757        C  0.83915034  0.42110864  0.50858559     0.20500
C758        C  0.82752320  0.40996522  0.53754791    -0.39300
C759        C  0.84049911  0.41737781  0.56668018     0.19500
C760        C  0.86326400  0.43464953  0.56692272     0.22100
C761        C  0.87486811  0.44580185  0.53798083    -0.39900
C762        C  0.86194385  0.43830700  0.50884074     0.20900
N763        N  0.83086030  0.41679693  0.47767463    -0.33100
C764        C  0.84853436  0.43121887  0.45804639    -0.10700
C765        C  0.86819327  0.44499070  0.47663779    -0.29500
N766        N  0.87176440  0.43860727  0.59770822    -0.46100
C767        C  0.85431703  0.42376960  0.61729206    -0.05400
C768        C  0.83452656  0.41018610  0.59879595    -0.22700
H769        H  0.80974356  0.39640842  0.53737463     0.19100
H770        H  0.89270952  0.45920194  0.53811520     0.17900
H771        H  0.88489493  0.45786242  0.46773900     0.14100
H772        H  0.81795916  0.39701793  0.60769496     0.14000
H773        H  0.81430541  0.40448237  0.47032441     0.32200
H774        H  0.88839076  0.45078085  0.60497742     0.34900
C775        C  0.86149813  0.42992532  0.06670863     0.20500
C776        C  0.87325193  0.44003852  0.03747613    -0.39300
C777        C  0.85985810  0.43359404  0.00879370     0.19500
C778        C  0.83649616  0.41820868  0.00910261     0.22100
C779        C  0.82469512  0.40800421  0.03841769    -0.39900
C780        C  0.83814551  0.41447084  0.06719488     0.20900
N781        N  0.87038256  0.43354785  0.09720417    -0.33100
C782        C  0.85262473  0.42029210  0.11739198    -0.10700
C783        C  0.83219957  0.40807312  0.09958769    -0.29500
N784        N  0.82777356  0.41500982  0.97844881    -0.46100
C785        C  0.84574612  0.42847450  0.95857080    -0.05400
C786        C  0.86601792  0.44030417  0.97665898    -0.22700
H787        H  0.89150456  0.45212208  0.03711087     0.19100
H788        H  0.80642206  0.39599303  0.03880569     0.17900
H789        H  0.81527729  0.39637016  0.10911544     0.14100
H790        H  0.88301016  0.45213268  0.96748622     0.14000
H791        H  0.88748582  0.44449107  0.10389308     0.32200
H792        H  0.81068432  0.40426989  0.97147135     0.34900
C793        C  0.27835065  0.68569346  0.47795545     0.20500
C794        C  0.29685806  0.70451541  0.49354349    -0.39300
C795        C  0.31300956  0.72149331  0.47259572     0.19500
C796        C  0.31107500  0.71952258  0.43869234     0.22100
C797        C  0.29232332  0.70090218  0.42308261    -0.39900
C798        C  0.27589265  0.68415723  0.44407332     0.20900
N799        N  0.26081263  0.66739687  0.49245835    -0.33100
C800        C  0.24675863  0.65426267  0.46781754    -0.10700
C801        C  0.25550730  0.66420112  0.43716777    -0.29500
N802        N  0.32898782  0.73754526  0.42428684    -0.46100
C803        C  0.34220868  0.75136455  0.44908377    -0.05400
C804        C  0.33275149  0.74199726  0.47966223    -0.22700
H805        H  0.29851065  0.70585972  0.52006279     0.19100
H806        H  0.29063195  0.69959865  0.39656138     0.17900
H807        H  0.24810206  0.65762944  0.41319074     0.14100
H808        H  0.33959290  0.74900416  0.50370687     0.14000
H809        H  0.25828623  0.66422650  0.51771634     0.32200
H810        H  0.33193361  0.74045131  0.39903983     0.34900
C811        C  0.01331842  0.48118140  0.64110766     0.20500
C812        C  0.98949007  0.47188294  0.64065041    -0.39300
C813        C  0.97873641  0.46642423  0.67145328     0.19500
C814        C  0.99072601  0.47012008  0.70068101     0.22100
C815        C  0.01460407  0.47925682  0.70113920    -0.39900
C816        C  0.02536559  0.48449567  0.67020812     0.20900
N817        N  0.02767630  0.48965861  0.61535220    -0.33100
C818        C  0.04906561  0.49836820  0.62803782    -0.10700
C819        C  0.04829033  0.49522927  0.66214401    -0.29500
N820        N  0.97666979  0.46528952  0.72669129    -0.46100
C821        C  0.95560893  0.45844919  0.71375232    -0.05400
C822        C  0.95627303  0.45877877  0.67942224    -0.22700
H823        H  0.98009849  0.46980909  0.61802686     0.19100
H824        H  0.02419906  0.48276600  0.72389792     0.17900
H825        H  0.06266144  0.50152631  0.67902443     0.14100
H826        H  0.94237988  0.45510633  0.66252736     0.14000
H827        H  0.02326568  0.49049773  0.59090092     0.32200
H828        H  0.98127500  0.46739924  0.75153979     0.34900
C829        C  0.97529188  0.51612032  0.41540661     0.20500
C830        C  0.98467292  0.52154692  0.44732920    -0.39300
C831        C  0.00860018  0.53152119  0.44948050     0.19500
C832        C  0.02207561  0.53591139  0.42181976     0.22100
C833        C  0.01270178  0.53036194  0.38997427    -0.39900
C834        C  0.98879471  0.52018542  0.38786244     0.20900
N835        N  0.95296218  0.50457914  0.40713983    -0.33100
C836        C  0.95215691  0.50086764  0.37422770    -0.10700
C837        C  0.97422791  0.51050863  0.36128530    -0.29500
N838        N  0.04394918  0.54344864  0.43041434    -0.46100
C839        C  0.04449481  0.54351719  0.46380317    -0.05400
C840        C  0.02277179  0.53644008  0.47665526    -0.22700
H841        H  0.97401356  0.51732331  0.46898867     0.19100
H842        H  0.02316654  0.53278402  0.36856513     0.17900
H843        H  0.97894427  0.50933536  0.33625939     0.14100
H844        H  0.01772866  0.53369311  0.50226180     0.14000
H845        H  0.93907752  0.49822792  0.42330351     0.32200
H846        H  0.05739701  0.54687945  0.41448618     0.34900
C847        C  0.27956329  0.68847054  0.97875012     0.20500
C848        C  0.29924052  0.70589719  0.99436165    -0.39300
C849        C  0.31521296  0.72319737  0.97365780     0.19500
C850        C  0.31190699  0.72283272  0.93995759     0.22100
C851        C  0.29200370  0.70569760  0.92447125    -0.39900
C852        C  0.27588331  0.68858973  0.94522296     0.20900
N853        N  0.26217406  0.66984952  0.99281368    -0.33100
C854        C  0.24714535  0.65815708  0.96821385    -0.10700
C855        C  0.25497564  0.66940708  0.93813753    -0.29500
N856        N  0.32995068  0.74062319  0.92553996    -0.46100
C857        C  0.34467844  0.75267221  0.95019304    -0.05400
C858        C  0.33606876  0.74247888  0.98069149    -0.22700
H859        H  0.30198024  0.70587649  0.02063083     0.19100
H860        H  0.28937118  0.70559841  0.89815937     0.17900
H861        H  0.24674436  0.66404815  0.91431995     0.14100
H862        H  0.34413931  0.74814847  0.00455701     0.14000
H863        H  0.26053592  0.66542012  0.01771658     0.32200
H864        H  0.33203019  0.74454446  0.90043718     0.34900
C865        C  0.99116271  0.46849576  0.19777941     0.20500
C866        C  0.01512970  0.47833578  0.19840668    -0.39300
C867        C  0.02616256  0.48524184  0.16775921     0.19500
C868        C  0.01427463  0.48275203  0.13874373     0.22100
C869        C  0.99033889  0.47266568  0.13806947    -0.39900
C870        C  0.97931498  0.46559730  0.16860709     0.20900
N871        N  0.97690835  0.46259903  0.22373274    -0.33100
C872        C  0.95586027  0.45590980  0.21089194    -0.10700
C873        C  0.95671412  0.45730552  0.17658796    -0.29500
N874        N  0.02882460  0.49285805  0.11350966    -0.46100
C875        C  0.05017141  0.50180859  0.12648944    -0.05400
C876        C  0.04918151  0.49716229  0.16018997    -0.22700
H877        H  0.02458819  0.48128971  0.22119625     0.19100
H878        H  0.98105669  0.47131812  0.11559479     0.17900
H879        H  0.94291349  0.45420469  0.15984432     0.14100
H880        H  0.06341580  0.50313315  0.17726546     0.14000
H881        H  0.98142693  0.46416467  0.24862838     0.32200
H882        H  0.02452297  0.49451524  0.08933356     0.34900
C883        C  0.13993937  0.56076740  0.75692128     0.20500
C884        C  0.12567111  0.55246819  0.78465044    -0.39300
C885        C  0.13542612  0.56387551  0.81435289     0.19500
C886        C  0.15765335  0.58217938  0.81625949     0.22100
C887        C  0.17190326  0.59046522  0.78854140    -0.39900
C888        C  0.16220259  0.57899388  0.75889622     0.20900
N889        N  0.13469482  0.55308682  0.72580417    -0.33100
C890        C  0.15378859  0.56648633  0.70785697    -0.10700
C891        C  0.17132759  0.58277718  0.72769343    -0.29500
N892        N  0.16306001  0.58971665  0.84741635    -0.46100
C893        C  0.14417740  0.57605626  0.86556984    -0.05400
C894        C  0.12654433  0.55980032  0.84574837    -0.22700
H895        H  0.10830259  0.53812816  0.78323657     0.19100
H896        H  0.18931378  0.60471906  0.78998286     0.17900
H897        H  0.18828748  0.59595119  0.72014605     0.14100
H898        H  0.10969288  0.54645619  0.85341629     0.14000
H899        H  0.11901964  0.53972967  0.71724348     0.32200
H900        H  0.17877207  0.60303841  0.85589409     0.34900
C901        C  0.14104305  0.56390162  0.25700335     0.20500
C902        C  0.12663866  0.55431014  0.28433959    -0.39300
C903        C  0.13622414  0.56422040  0.31484491     0.19500
C904        C  0.15847920  0.58231666  0.31789905     0.22100
C905        C  0.17294028  0.59188894  0.29054099    -0.39900
C906        C  0.16334417  0.58193308  0.25998524     0.20900
N907        N  0.13585057  0.55767026  0.22536737    -0.33100
C908        C  0.15496234  0.57175580  0.20794879    -0.10700
C909        C  0.17254215  0.58710934  0.22871762    -0.29500
N910        N  0.16352614  0.58852208  0.34960120    -0.46100
C911        C  0.14436050  0.57424705  0.36686000    -0.05400
C912        C  0.12694826  0.55887125  0.34599144    -0.22700
H913        H  0.10922644  0.54016681  0.28201218     0.19100
H914        H  0.19035848  0.60602432  0.29287971     0.17900
H915        H  0.18961214  0.60041441  0.22182671     0.14100
H916        H  0.10990065  0.54544560  0.35273960     0.14000
H917        H  0.12020642  0.54464660  0.21616792     0.32200
H918        H  0.17911328  0.60154108  0.35894828     0.34900
C919        C  0.00955042  0.53408898  0.94879648     0.20500
C920        C  0.98560004  0.52443069  0.94948955    -0.39300
C921        C  0.97437936  0.51826486  0.91878321     0.19500
C922        C  0.98608844  0.52129934  0.88961666     0.22100
C923        C  0.01002681  0.53120172  0.88888022    -0.39900
C924        C  0.02122884  0.53749072  0.91950760     0.20900
N925        N  0.02388875  0.53922693  0.97472079    -0.33100
C926        C  0.04482602  0.54588809  0.96177150    -0.10700
C927        C  0.04381569  0.54526982  0.92741160    -0.29500
N928        N  0.97134721  0.51160814  0.86431289    -0.46100
C929        C  0.95003805  0.50231711  0.87738967    -0.05400
C930        C  0.95128420  0.50642028  0.91124294    -0.22700
H931        H  0.97626656  0.52099119  0.97235779     0.19100
H932        H  0.01916359  0.53289479  0.86627234     0.17900
H933        H  0.05749327  0.54855573  0.91051433     0.14100
H934        H  0.93717645  0.49996229  0.92844412     0.14000
H935        H  0.01946899  0.53713582  0.99961202     0.32200
H936        H  0.97550817  0.51026091  0.84004796     0.34900
C937        C  0.40902842  0.71681419  0.81706908     0.20500
C938        C  0.40947892  0.69699957  0.82647507    -0.39300
C939        C  0.40842991  0.68283203  0.80065158     0.19500
C940        C  0.40697340  0.68809897  0.76808468     0.22100
C941        C  0.40680787  0.70803343  0.75867386    -0.39900
C942        C  0.40793369  0.72222536  0.78445498     0.20900
N943        N  0.40923372  0.73268328  0.83692293    -0.33100
C944        C  0.40835017  0.74835817  0.81689426    -0.10700
C945        C  0.40770560  0.74255694  0.78389761    -0.29500
N946        N  0.40604474  0.67192415  0.74818665    -0.46100
C947        C  0.40712208  0.65629382  0.76804998    -0.05400
C948        C  0.40862054  0.66245768  0.80106235    -0.22700
H949        H  0.41044338  0.69287908  0.85199801     0.19100
H950        H  0.40575450  0.71210811  0.73315889     0.22700
H951        H  0.40676408  0.75170042  0.76254381     0.14100
H952        H  0.40986076  0.65341088  0.82232101     0.14000
H953        H  0.40988673  0.73280872  0.86263962     0.32200
H954        H  0.40510225  0.67174319  0.72249904     0.34900
C955        C  0.28158908  0.58609948  0.59260930     0.20500
C956        C  0.29937355  0.58332262  0.58034985    -0.39300
C957        C  0.31663659  0.58717572  0.60288272     0.19500
C958        C  0.31632762  0.59356382  0.63511073     0.22100
C959        C  0.29827999  0.59603091  0.64755454    -0.39900
C960        C  0.28079386  0.59192817  0.62499706     0.20900
N961        N  0.26364824  0.58405267  0.57565975    -0.33100
C962        C  0.25108109  0.58837948  0.59723381    -0.10700
C963        C  0.26106041  0.59320763  0.62849804    -0.29500
N964        N  0.33498484  0.59649673  0.65136606    -0.46100
C965        C  0.34700457  0.59164665  0.62938109    -0.05400
C966        C  0.33607712  0.58569459  0.59889257    -0.22700
H967        H  0.29977912  0.57861948  0.55503588     0.19100
H968        H  0.29795415  0.60088738  0.67280180     0.17900
H969        H  0.25516189  0.59778337  0.65032674     0.14100
H970        H  0.34154945  0.58083002  0.57689659     0.14000
H971        H  0.26024728  0.58011970  0.55068538     0.32200
H972        H  0.33903148  0.60099629  0.67606375     0.34900
C973        C  0.40264820  0.71990012  0.28664304     0.20500
C974        C  0.40366212  0.70791765  0.25929564    -0.39300
C975        C  0.40233992  0.68691862  0.26617819     0.19500
C976        C  0.40023119  0.67839230  0.29783404     0.22100
C977        C  0.39886866  0.69022718  0.32520277    -0.39900
C978        C  0.40017431  0.71126197  0.31829591     0.20900
N979        N  0.40464673  0.74076628  0.28681204    -0.33100
C980        C  0.40339898  0.74539616  0.31885775    -0.10700
C981        C  0.40045018  0.72734159  0.33915213    -0.29500
N982        N  0.40048283  0.65855706  0.29773969    -0.46100
C983        C  0.40265135  0.65450767  0.26569837    -0.05400
C984        C  0.40370622  0.67173094  0.24538898    -0.22700
H985        H  0.40581193  0.71466264  0.23453209     0.19100
H986        H  0.39740900  0.68380483  0.35006134     0.17900
H987        H  0.39926039  0.72638676  0.36573171     0.14100
H988        H  0.40575987  0.67320552  0.21892773     0.14000
H989        H  0.40704747  0.75129752  0.26653198     0.32200
H990        H  0.39942159  0.64855065  0.31807569     0.34900
C991        C  0.31334876  0.58418872  0.10668385     0.20500
C992        C  0.29560551  0.57845543  0.08409187    -0.39300
C993        C  0.27881278  0.58353716  0.09381243     0.19500
C994        C  0.27926954  0.59330371  0.12392146     0.22100
C995        C  0.29718896  0.59921556  0.14654037    -0.39900
C996        C  0.31422461  0.59437015  0.13659801     0.20900
N997        N  0.33141346  0.58115097  0.10311157    -0.33100
C998        C  0.34401922  0.58964553  0.13085927    -0.10700
C999        C  0.33390588  0.59808822  0.15229674    -0.29500
N1000       N  0.26147369  0.59701050  0.12652507    -0.46100
C1001       C  0.25009607  0.58991033  0.09747355    -0.05400
C1002       C  0.26032598  0.58133879  0.07670389    -0.22700
H1003       H  0.29508521  0.57090496  0.06043162     0.19100
H1004       H  0.29798779  0.60724611  0.16988347     0.17900
H1005       H  0.33995328  0.60555274  0.17638774     0.14100
H1006       H  0.25524302  0.57497356  0.05187308     0.14000
H1007       H  0.33489324  0.57370065  0.08314146     0.32200
H1008       H  0.25795724  0.60481420  0.14596598     0.34900
C1009       C  0.43352643  0.56800772  0.98214723     0.20500
C1010       C  0.44340059  0.56601139  0.95291437    -0.39300
C1011       C  0.43639527  0.57216003  0.92388899     0.19500
C1012       C  0.42078657  0.57975798  0.92398616     0.22100
C1013       C  0.41089619  0.58172722  0.95320220    -0.39900
C1014       C  0.41785061  0.57552128  0.98220222     0.20900
N1015       N  0.43738803  0.56331717  0.01295287    -0.33100
C1016       C  0.42403086  0.56782066  0.03278225    -0.10700
C1017       C  0.41157472  0.57544206  0.01445281    -0.29500
N1018       N  0.41697384  0.58454464  0.89322115    -0.46100
C1019       C  0.43022153  0.57993768  0.87332178    -0.05400
C1020       C  0.44259114  0.57217576  0.89158914    -0.22700
H1021       H  0.45563396  0.56010681  0.95277574     0.19100
H1022       H  0.39867430  0.58764598  0.95334540     0.17900
H1023       H  0.39964154  0.58039008  0.02354094     0.14100
H1024       H  0.45450316  0.56721426  0.88245195     0.14000
H1025       H  0.44843194  0.55741993  0.02004629     0.32200
H1026       H  0.40601708  0.59055659  0.88620028     0.34900
C1027       C  0.41783079  0.57556329  0.48271443     0.20500
C1028       C  0.40878278  0.58108966  0.45534476    -0.39300
C1029       C  0.41719999  0.57930972  0.42473735     0.19500
C1030       C  0.43326963  0.57241157  0.42169357     0.22100
C1031       C  0.44227711  0.56685122  0.44902840    -0.39900
C1032       C  0.43398027  0.56877627  0.47962437     0.20900
N1033       N  0.41297604  0.57629265  0.51450250    -0.33100
C1034       C  0.42622958  0.57004781  0.53172802    -0.10700
C1035       C  0.43952853  0.56516814  0.51084164    -0.29500
N1036       N  0.43873247  0.57240253  0.39004512    -0.46100
C1037       C  0.42612479  0.57942136  0.37282181    -0.05400
C1038       C  0.41243821  0.58387548  0.39355309    -0.22700
H1039       H  0.39630710  0.58658781  0.45773273     0.19100
H1040       H  0.45497986  0.56164729  0.44665729     0.17900
H1041       H  0.45164367  0.55977951  0.51759832     0.14100
H1042       H  0.40075441  0.58980002  0.38674665     0.14000
H1043       H  0.40148493  0.58090118  0.52389335     0.32200
H1044       H  0.45047913  0.56808693  0.38076506     0.34900
C1045       C  0.59463000  0.31587030  0.02947263     0.20500
C1046       C  0.59607284  0.29738563  0.01622677    -0.39300
C1047       C  0.59253606  0.27995140  0.03859488     0.19500
C1048       C  0.58806419  0.28117047  0.07148987     0.22100
C1049       C  0.58626368  0.29936472  0.08455538    -0.39900
C1050       C  0.58964815  0.31661289  0.06227461     0.20900
N1051       N  0.59739577  0.33460421  0.01359052    -0.33100
C1052       C  0.59381575  0.34711423  0.03638028    -0.10700
C1053       C  0.58890638  0.33642218  0.06704801    -0.29500
N1054       N  0.58662620  0.26338989  0.08816528    -0.46100
C1055       C  0.59012033  0.25050846  0.06603732    -0.05400
C1056       C  0.59360628  0.26008887  0.03454876    -0.22700
H1057       H  0.59991360  0.29677018  0.99055842     0.19100
H1058       H  0.58272515  0.30013350  0.11032257     0.17900
H1059       H  0.58511065  0.34224741  0.08965521     0.14100
H1060       H  0.59737836  0.25396541  0.01222198     0.14000
H1061       H  0.60087992  0.33835511  0.98860665     0.32200
H1062       H  0.58382676  0.26041097  0.11342156     0.34900
C1063       C  0.72115953  0.40309490  0.88044630     0.20500
C1064       C  0.70943711  0.40512469  0.90731091    -0.39300
C1065       C  0.68921136  0.40522167  0.89969032     0.19500
C1066       C  0.68114054  0.40352045  0.86781081     0.22100
C1067       C  0.69275406  0.40122934  0.84090109    -0.39900
C1068       C  0.71300159  0.40106285  0.84854874     0.20900
N1069       N  0.74138585  0.40367665  0.88099494    -0.33100
C1070       C  0.74609756  0.40198821  0.84914847    -0.10700
C1071       C  0.72871001  0.40013035  0.82828533    -0.29500
N1072       N  0.66168109  0.40452219  0.86733014    -0.46100
C1073       C  0.65738882  0.40666860  0.89926247    -0.05400
C1074       C  0.67417869  0.40716142  0.91999827    -0.22700
H1075       H  0.71574893  0.40682187  0.93228642     0.19100
H1076       H  0.68668506  0.39999922  0.81586203     0.17900
H1077       H  0.72807918  0.39908235  0.80168718     0.14100
H1078       H  0.67524884  0.40877601  0.94653474     0.14000
H1079       H  0.75155548  0.40563837  0.90156859     0.32200
H1080       H  0.65188229  0.40357802  0.84676454     0.34900
C1081       C  0.53812688  0.51415117  0.83491734     0.20500
C1082       C  0.53276731  0.51877798  0.80337415    -0.39300
C1083       C  0.52145030  0.53143212  0.80236461     0.19500
C1084       C  0.51621783  0.53918555  0.83064518     0.22100
C1085       C  0.52131027  0.53429423  0.86220432    -0.39900
C1086       C  0.53230262  0.52132409  0.86323656     0.20900
N1087       N  0.54741579  0.50115275  0.84244819    -0.33100
C1088       C  0.54711352  0.49959300  0.87577303    -0.10700
C1089       C  0.53783476  0.51200664  0.88965677    -0.29500
N1090       N  0.50420803  0.54956946  0.82323724    -0.46100
C1091       C  0.50130393  0.54802531  0.79009227    -0.05400
C1092       C  0.51194570  0.53691341  0.77616018    -0.22700
H1093       H  0.53639045  0.51227403  0.78129841     0.19100
H1094       H  0.51630882  0.53948296  0.88434435     0.17900
H1095       H  0.53476392  0.51331583  0.91545241     0.14100
H1096       H  0.51170836  0.53238671  0.75058606     0.14000
H1097       H  0.55250839  0.49281219  0.82585748     0.32200
H1098       H  0.49714816  0.55601585  0.83994380     0.34900
C1099       C  0.47771542  0.46606820  0.05582807     0.20500
C1100       C  0.46491975  0.47718371  0.05632709    -0.39300
C1101       C  0.45980903  0.48202010  0.08761395     0.19500
C1102       C  0.46685415  0.47625862  0.11638129     0.22100
C1103       C  0.47951711  0.46496568  0.11589056    -0.39900
C1104       C  0.48465142  0.46014197  0.08455067     0.20900
N1105       N  0.48711566  0.46215973  0.02933663    -0.33100
C1106       C  0.50030648  0.45389101  0.04134416    -0.10700
C1107       C  0.49893764  0.45210509  0.07561375    -0.29500
N1108       N  0.46241448  0.48543241  0.14267866    -0.46100
C1109       C  0.45275561  0.49732589  0.13040421    -0.05400
C1110       C  0.45053593  0.49525712  0.09625702    -0.22700
H1111       H  0.46043445  0.48286812  0.03400770     0.19100
H1112       H  0.48604160  0.46140665  0.13818485     0.17900
H1113       H  0.50855205  0.44729193  0.09195298     0.14100
H1114       H  0.44478529  0.50397690  0.07970703     0.14000
H1115       H  0.48590894  0.46635028  0.00493009     0.32200
H1116       H  0.46730160  0.48513657  0.16705696     0.34900
C1117       C  0.59251892  0.28362882  0.57243891     0.20500
C1118       C  0.58972740  0.30124918  0.58540847    -0.39300
C1119       C  0.59345977  0.31876804  0.56346768     0.19500
C1120       C  0.59985420  0.31890515  0.53113348     0.22100
C1121       C  0.60243511  0.30104743  0.51799348    -0.39900
C1122       C  0.59835121  0.28322457  0.53995745     0.20900
N1123       N  0.59004943  0.26527062  0.58864599    -0.33100
C1124       C  0.59407823  0.25271913  0.56659951    -0.10700
C1125       C  0.59921563  0.26325423  0.53566176    -0.29500
N1126       N  0.60216580  0.33749029  0.51535500    -0.46100
C1127       C  0.59683826  0.34896797  0.53770739    -0.05400
C1128       C  0.59131309  0.33780915  0.56801605    -0.22700
H1129       H  0.58483660  0.30121144  0.61074404     0.19100
H1130       H  0.60711623  0.30098317  0.49258149     0.17900
H1131       H  0.60355763  0.25747923  0.51349049     0.14100
H1132       H  0.58607013  0.34274707  0.59016647     0.14000
H1133       H  0.58587643  0.26151172  0.61348298     0.32200
H1134       H  0.60634997  0.34171111  0.49061861     0.34900
C1135       C  0.68518269  0.40674736  0.37092502     0.20500
C1136       C  0.69628445  0.40375813  0.34400316    -0.39300
C1137       C  0.71649870  0.40352696  0.35138684     0.19500
C1138       C  0.72520021  0.40624648  0.38304642     0.22100
C1139       C  0.71399856  0.40904537  0.41000722    -0.39900
C1140       C  0.69368889  0.40910381  0.40265553     0.20900
N1141       N  0.66556217  0.40739427  0.37059649    -0.33100
C1142       C  0.66150079  0.40992070  0.40246368    -0.10700
C1143       C  0.67867585  0.41108642  0.42307579    -0.29500
N1144       N  0.74510691  0.40615195  0.38325983    -0.46100
C1145       C  0.74894772  0.40323485  0.35144924    -0.05400
C1146       C  0.73142876  0.40141281  0.33097526    -0.22700
H1147       H  0.68972046  0.40181101  0.31914176     0.19100
H1148       H  0.72060601  0.41106879  0.43485218     0.17900
H1149       H  0.67987634  0.41292211  0.44957980     0.14100
H1150       H  0.73013946  0.39944946  0.30448992     0.14000
H1151       H  0.65537459  0.40574617  0.35017055     0.32200
H1152       H  0.75553279  0.40826081  0.40358054     0.34900
C1153       C  0.57130920  0.43591248  0.68480972     0.20500
C1154       C  0.57157411  0.44727716  0.71380861    -0.39300
C1155       C  0.57479935  0.43812226  0.74310082     0.19500
C1156       C  0.57760713  0.41916134  0.74344244     0.22100
C1157       C  0.57726410  0.40777602  0.71449749    -0.39900
C1158       C  0.57406402  0.41692390  0.68525074     0.20900
N1159       N  0.56869292  0.44126185  0.65377988    -0.33100
C1160       C  0.56987401  0.42559381  0.63438087    -0.10700
C1161       C  0.57321512  0.41015057  0.65314490    -0.29500
N1162       N  0.58083033  0.41407826  0.77429406    -0.46100
C1163       C  0.57999632  0.42986268  0.79379184    -0.05400
C1164       C  0.57617653  0.44510988  0.77525525    -0.22700
H1165       H  0.56954082  0.46219568  0.71357290     0.19100
H1166       H  0.57949442  0.39297811  0.71471079     0.17900
H1167       H  0.57479728  0.39587922  0.64444214     0.14100
H1168       H  0.57489329  0.45952713  0.78409171     0.14000
H1169       H  0.56638914  0.45480048  0.64625779     0.32200
H1170       H  0.58346740  0.40072160  0.78162426     0.34900
C1171       C  0.57521711  0.43489805  0.24480790     0.20500
C1172       C  0.56828832  0.44268712  0.21746414    -0.39300
C1173       C  0.57074656  0.43471384  0.18686435     0.19500
C1174       C  0.57933452  0.42001140  0.18377225     0.22100
C1175       C  0.58628303  0.41222719  0.21113654    -0.39900
C1176       C  0.58390992  0.42028014  0.24175264     0.20900
N1177       N  0.57481320  0.44017724  0.27648056    -0.33100
C1178       C  0.58335341  0.42889996  0.29375116    -0.10700
C1179       C  0.58920798  0.41626471  0.27296518    -0.29500
N1180       N  0.57996693  0.41496728  0.15201542    -0.46100
C1181       C  0.57182218  0.42663000  0.13478644    -0.05400
C1182       C  0.56588558  0.43914533  0.15566149    -0.22700
H1183       H  0.56158192  0.45418957  0.21983985     0.19100
H1184       H  0.59310978  0.40082842  0.20874853     0.17900
H1185       H  0.59643664  0.40568121  0.27976025     0.14100
H1186       H  0.55891872  0.44996707  0.14891387     0.14000
H1187       H  0.56916176  0.45089013  0.28576548     0.32200
H1188       H  0.58568239  0.40434581  0.14264107     0.34900
C1189       C  0.51705971  0.52966399  0.30585377     0.20500
C1190       C  0.52957081  0.51824546  0.30354357    -0.39300
C1191       C  0.53553501  0.51216390  0.33353834     0.19500
C1192       C  0.52917326  0.51672017  0.36361853     0.22100
C1193       C  0.51691884  0.52844648  0.36596680    -0.39900
C1194       C  0.51128534  0.53488570  0.33591860     0.20900
N1195       N  0.50795848  0.53573179  0.28093958    -0.33100
C1196       C  0.49648585  0.54513850  0.29511884    -0.10700
C1197       C  0.49836045  0.54510917  0.32941209    -0.29500
N1198       N  0.53515661  0.50733803  0.38830214    -0.46100
C1199       C  0.54562805  0.49695284  0.37382912    -0.05400
C1200       C  0.54634660  0.49979504  0.33971882    -0.22700
H1201       H  0.53378130  0.51381901  0.28006713     0.19100
H1202       H  0.51158753  0.53172804  0.38940372     0.17900
H1203       H  0.49016067  0.55051512  0.34719760     0.14100
H1204       H  0.55268024  0.49257405  0.32172299     0.14000
H1205       H  0.50885021  0.53294500  0.25585842     0.32200
H1206       H  0.53167916  0.50735806  0.41331028     0.34900
C1207       C  0.48226254  0.45899479  0.57587124     0.20500
C1208       C  0.47695015  0.46255551  0.60786351    -0.39300
C1209       C  0.46742484  0.47676057  0.61037860     0.19500
C1210       C  0.46340615  0.48653832  0.58299992     0.22100
C1211       C  0.46857004  0.48286851  0.55099870    -0.39900
C1212       C  0.47814938  0.46872089  0.54850020     0.20900
N1213       N  0.49430472  0.44891361  0.56752450    -0.33100
C1214       C  0.49810319  0.45241876  0.53471801    -0.10700
C1215       C  0.48791885  0.46436043  0.52184240    -0.29500
N1216       N  0.45664131  0.50128065  0.59207462    -0.46100
C1217       C  0.45657643  0.50114804  0.62546062    -0.05400
C1218       C  0.46294561  0.48583399  0.63782724    -0.22700
H1219       H  0.48117430  0.45585237  0.62935338     0.19100
H1220       H  0.46650180  0.49145896  0.52981113     0.17900
H1221       H  0.48948896  0.47098627  0.49708881     0.14100
H1222       H  0.46548934  0.48293954  0.66333057     0.14000
H1223       H  0.50106238  0.44167311  0.58361612     0.32200
H1224       H  0.45360622  0.51183250  0.57648371     0.34900
loop_ 
_geom_bond_atom_site_label_1 
_geom_bond_atom_site_label_2 
_geom_bond_distance 
_geom_bond_site_symmetry_2 
_ccdc_geom_bond_type 
O1           Mg3   2.129       .  S
O1           Mg9   2.136       .  S
O1           C36   1.238       .  S
C2           O15   1.236       .  S
C2           O39   1.268       .  A
C2           H41   1.081       .  S
Mg3          O32   2.160       .  S
Mg3          O47   2.343       .  S
Mg3          O43   2.259       .  S
Mg3          O14   2.312       .  S
O4          Mg46   2.153       .  S
O4          Mg29   2.131       .  S
O4           C25   1.236       .  S
O5           C36   1.271       .  A
O5          Mg29   2.299       .  S
C6            O8   1.273       .  A
C6           O20   1.276       .  A
C6         C1199   1.479       .  S
O7           C35   1.273       .  A
O7           Mg9   2.302       .  S
O8          Mg40   2.274       .  S
Mg9          O15   2.109       .  S
Mg9          O23   2.211       .  S
Mg9          O11   2.282       .  S
C10          O48   1.274       .  A
C10          O16   1.274       .  A
C10        C1214   1.470       .  S
O11          C18   1.270       .  A
H12          C25   1.081       .  S
C13          O27   1.237       .  S
C13          O28   1.271       .  A
C13          H38   1.081       .  S
O14          C37   1.272       .  A
O15         Mg29   2.139       .  S
O16         Mg46   2.292       .  S
C17          O30   1.274       .  A
C17          O22   1.276       .  A
C17        C1160   1.472       .  S
C18          O45   1.274       .  A
C18        C1127   1.469       .  S
Mg19         O26   2.159       .  S
Mg19         O27   2.151       .  S
Mg19         O20   2.328       .  S
Mg19         O21   2.295       .  S
Mg19         O48   2.276       .  S
O21          C25   1.270       .  A
O22         Mg29   2.302       .  S
O23          C42   1.265       .  A
O24          C44   1.275       .  A
O24         Mg40   2.302       .  S
O26         Mg40   2.146       .  S
O26          C37   1.237       .  S
O27         Mg46   2.153       .  S
O28         Mg40   2.303       .  S
Mg29         O45   2.284       .  S
O30         Mg46   2.277       .  S
H31          C36   1.081       .  S
O32         Mg40   2.151       .  S
O32          C35   1.239       .  S
H33          C35   1.081       .  S
H34          C37   1.081       .  S
O39         Mg46   2.282       .  S
C42          O47   1.278       .  A
C42        C1142   1.470       .  S
O43          C44   1.272       .  A
C44        C1178   1.469       .  S
O49         Mg51   2.133       .  S
O49         Mg57   2.134       .  S
O49          C84   1.238       .  S
C50          O63   1.236       .  S
C50          O87   1.268       .  A
C50          H89   1.081       .  S
Mg51         O80   2.163       .  S
Mg51         O95   2.352       .  S
Mg51         O91   2.268       .  S
Mg51         O62   2.310       .  S
O52         Mg94   2.149       .  S
O52         Mg77   2.134       .  S
O52          C73   1.236       .  S
O53          C84   1.271       .  A
O53         Mg77   2.301   1_556  S
C54          O56   1.271       .  A
C54          O68   1.279       .  A
C54        C1088   1.476       .  S
O55          C83   1.273       .  A
O55         Mg57   2.302       .  S
O56         Mg88   2.257       .  S
Mg57         O63   2.106   1_556  S
Mg57         O71   2.202       .  S
Mg57         O59   2.292   1_556  S
C58          O96   1.276   1_554  A
C58          O64   1.271       .  A
C58        C1106   1.471       .  S
O59          C66   1.272       .  A
H60          C73   1.081       .  S
C61          O75   1.236       .  S
C61          O76   1.271       .  A
C61          H86   1.081       .  S
O62          C85   1.272       .  A
O63         Mg77   2.134       .  S
O64         Mg94   2.269       .  S
C65          O78   1.272       .  A
C65          O70   1.275       .  A
C65        C1181   1.469       .  S
C66          O93   1.273       .  A
C66        C1052   1.470       .  S
Mg67         O74   2.162       .  S
Mg67         O75   2.155       .  S
Mg67         O68   2.340       .  S
Mg67         O69   2.298       .  S
Mg67         O96   2.295       .  S
O69          C73   1.270   1_556  A
O70         Mg77   2.302       .  S
O71          C90   1.265       .  A
O72          C92   1.274       .  A
O72         Mg88   2.297       .  S
O74         Mg88   2.151       .  S
O74          C85   1.237       .  S
O75         Mg94   2.149   1_556  S
O76         Mg88   2.302       .  S
Mg77         O93   2.281       .  S
O78         Mg94   2.264       .  S
H79          C84   1.081       .  S
O80         Mg88   2.148       .  S
O80          C83   1.239       .  S
H81          C83   1.081       .  S
H82          C85   1.081       .  S
O87         Mg94   2.283       .  S
C90          O95   1.279       .  A
C90        C1073   1.470       .  S
O91          C92   1.273       .  A
C92        C1163   1.471       .  S
O97         Mg99   2.122       .  S
O97        Mg105   2.138       .  S
O97         C132   1.238       .  S
C98         O111   1.236       .  S
C98         O135   1.268       .  A
C98         H137   1.081       .  S
Mg99        O128   2.164       .  S
Mg99        O143   2.339       .  S
Mg99        O139   2.249       .  S
Mg99        O110   2.312       .  S
O100       Mg142   2.149       .  S
O100       Mg125   2.132       .  S
O100        C121   1.236       .  S
O101        C132   1.271       .  A
O101       Mg125   2.297       .  S
C102        O104   1.272       .  A
C102        O116   1.278       .  A
C102       C1196   1.478       .  S
O103        C131   1.272       .  A
O103       Mg105   2.299       .  S
O104       Mg136   2.269       .  S
Mg105       O111   2.104       .  S
Mg105       O119   2.214       .  S
Mg105       O107   2.262       .  S
C106        O144   1.275       .  A
C106        O112   1.273       .  A
C106       C1109   1.470       .  S
O107        C114   1.269       .  A
H108        C121   1.081       .  S
C109        O123   1.236       .  S
C109        O124   1.271       .  A
C109        H134   1.081       .  S
O110        C133   1.272       .  A
O111       Mg125   2.142       .  S
O112       Mg142   2.275       .  S
C113        O126   1.275       .  A
C113        O118   1.276       .  A
C113       C1016   1.476       .  S
C114        O141   1.274       .  A
C114        C998   1.467       .  S
Mg115       O122   2.159       .  S
Mg115       O123   2.158       .  S
Mg115       O116   2.336       .  S
Mg115       O117   2.295       .  S
Mg115       O144   2.291       .  S
O117        C121   1.270       .  A
O118       Mg125   2.307       .  S
O119        C138   1.265       .  A
O120        C140   1.273       .  A
O120       Mg136   2.290       .  S
O122       Mg136   2.148       .  S
O122        C133   1.237       .  S
O123       Mg142   2.156       .  S
O124       Mg136   2.304       .  S
Mg125       O141   2.285       .  S
O126       Mg142   2.287       .  S
H127        C132   1.081       .  S
O128       Mg136   2.151       .  S
O128        C131   1.238       .  S
H129        C131   1.081       .  S
H130        C133   1.081       .  S
O135       Mg142   2.281       .  S
C138        O143   1.277       .  A
C138        C983   1.470       .  S
O139        C140   1.270       .  A
C140       C1037   1.464       .  S
O145       Mg147   2.134       .  S
O145       Mg153   2.135       .  S
O145        C180   1.237       .  S
C146        O159   1.236       .  S
C146        O183   1.268       .  A
C146        H185   1.081       .  S
Mg147       O176   2.156       .  S
Mg147       O191   2.333       .  S
Mg147       O187   2.273       .  S
Mg147       O158   2.309       .  S
O148       Mg190   2.149       .  S
O148       Mg173   2.127       .  S
O148        C169   1.235       .  S
O149        C180   1.271       .  A
O149       Mg173   2.298       .  S
C150        O152   1.271       .  A
C150        O164   1.278       .  A
C150       C1091   1.476       .  S
O151        C179   1.273       .  A
O151       Mg153   2.303       .  S
O152       Mg184   2.261       .  S
Mg153       O159   2.111       .  S
Mg153       O167   2.215       .  S
Mg153       O155   2.286       .  S
C154        O192   1.276       .  A
C154        O160   1.271       .  A
C154       C1217   1.472       .  S
O155        C162   1.271       .  A
H156        C169   1.081       .  S
C157        O171   1.237       .  S
C157        O172   1.271       .  A
C157        H182   1.081       .  S
O158        C181   1.272       .  A
O159       Mg173   2.138       .  S
O160       Mg190   2.273       .  S
C161        O174   1.272       .  A
C161        O166   1.274       .  A
C161       C1034   1.467       .  S
C162        O189   1.272       .  A
C162        C965   1.466       .  S
Mg163       O170   2.163       .  S
Mg163       O171   2.162       .  S
Mg163       O164   2.328       .  S
Mg163       O165   2.293       .  S
Mg163       O192   2.294       .  S
O165        C169   1.269       .  A
O166       Mg173   2.295       .  S
O167        C186   1.266       .  A
O168        C188   1.276       .  A
O168       Mg184   2.315       .  S
O170       Mg184   2.152       .  S
O170        C181   1.237       .  S
O171       Mg190   2.149       .  S
O172       Mg184   2.304       .  S
Mg173       O189   2.270       .  S
O174       Mg190   2.263       .  S
H175        C180   1.081       .  S
O176       Mg184   2.147       .  S
O176        C179   1.239       .  S
H177        C179   1.081       .  S
H178        C181   1.081       .  S
O183       Mg190   2.285       .  S
C186        O191   1.277       .  A
C186        C947   1.467       .  S
O187        C188   1.273       .  A
C188       C1019   1.477       .  S
O193       Mg195   2.135       .  S
O193       Mg201   2.130       .  S
O193        C228   1.239       .  S
C194        O207   1.235       .  S
C194        O231   1.267       .  A
C194        H233   1.081       .  S
Mg195       O224   2.157       .  S
Mg195       O239   2.337       .  S
Mg195       O235   2.268       .  S
Mg195       O206   2.314       .  S
O196       Mg238   2.153       .  S
O196       Mg221   2.136       .  S
O196        C217   1.236       .  S
O197        C228   1.273       .  A
O197       Mg221   2.306   1_554  S
C198        O200   1.271       .  A
C198        O212   1.279       .  A
C198        C875   1.475       .  S
O199        C227   1.273       .  A
O199       Mg201   2.302       .  S
O200       Mg232   2.249       .  S
Mg201       O207   2.102   1_554  S
Mg201       O215   2.208       .  S
Mg201       O203   2.280   1_554  S
C202        O240   1.278   1_556  A
C202        O208   1.273       .  A
C202        C926   1.480       .  S
O203        C210   1.271       .  A
H204        C217   1.081       .  S
C205        O219   1.236       .  S
C205        O220   1.271       .  A
C205        H230   1.081       .  S
O206        C229   1.273       .  A
O207       Mg221   2.133       .  S
O208       Mg238   2.283       .  S
C209        O222   1.275       .  A
C209        O214   1.279       .  A
C209        C893   1.476       .  S
C210        O237   1.275       .  A
C210        C854   1.471       .  S
Mg211       O218   2.175       .  S
Mg211       O219   2.159       .  S
Mg211       O212   2.338       .  S
Mg211       O213   2.295       .  S
Mg211       O240   2.314       .  S
O213        C217   1.270   1_554  A
O214       Mg221   2.326       .  S
O215        C234   1.265       .  A
O216        C236   1.276       .  A
O216       Mg232   2.317       .  S
O218       Mg232   2.156       .  S
O218        C229   1.238       .  S
O219       Mg238   2.158   1_554  S
O220       Mg232   2.305       .  S
Mg221       O237   2.299       .  S
O222       Mg238   2.274       .  S
H223        C228   1.081       .  S
O224       Mg232   2.137       .  S
O224        C227   1.240       .  S
H225        C227   1.081       .  S
H226        C229   1.081       .  S
O231       Mg238   2.280       .  S
C234        O239   1.276       .  A
C234       C1001   1.465       .  S
O235        C236   1.272       .  A
C236        C908   1.476       .  S
O241       Mg243   2.138       .  S
O241       Mg249   2.132       .  S
O241        C276   1.238       .  S
C242        O255   1.236       .  S
C242        O279   1.268       .  A
C242        H281   1.081       .  S
Mg243       O272   2.163       .  S
Mg243       O287   2.340       .  S
Mg243       O283   2.265       .  S
Mg243       O254   2.310       .  S
O244       Mg286   2.155       .  S
O244       Mg269   2.138       .  S
O244        C265   1.236       .  S
O245        C276   1.272       .  A
O245       Mg269   2.304       .  S
C246        O248   1.271       .  A
C246        O260   1.279       .  A
C246        C818   1.475       .  S
O247        C275   1.274       .  A
O247       Mg249   2.308       .  S
O248       Mg280   2.252       .  S
Mg249       O255   2.097       .  S
Mg249       O263   2.198       .  S
Mg249       O251   2.297       .  S
C250        O288   1.277       .  A
C250        O256   1.274       .  A
C250        C839   1.476       .  S
O251        C258   1.272       .  A
H252        C265   1.081       .  S
C253        O267   1.237       .  S
C253        O268   1.272       .  A
C253        H278   1.081       .  S
O254        C277   1.272       .  A
O255       Mg269   2.134       .  S
O256       Mg286   2.284       .  S
C257        O270   1.276       .  A
C257        O262   1.276       .  A
C257        C911   1.475       .  S
C258        O285   1.275       .  A
C258        C800   1.476       .  S
Mg259       O266   2.165       .  S
Mg259       O267   2.158       .  S
Mg259       O260   2.336       .  S
Mg259       O261   2.292       .  S
Mg259       O288   2.304       .  S
O261        C265   1.269       .  A
O262       Mg269   2.302       .  S
O263        C282   1.264       .  A
O264        C284   1.275       .  A
O264       Mg280   2.314       .  S
O266       Mg280   2.151       .  S
O266        C277   1.236       .  S
O267       Mg286   2.160       .  S
O268       Mg280   2.306       .  S
Mg269       O285   2.303       .  S
O270       Mg286   2.285       .  S
H271        C276   1.081       .  S
O272       Mg280   2.150       .  S
O272        C275   1.240       .  S
H273        C275   1.081       .  S
H274        C277   1.081       .  S
O279       Mg286   2.278       .  S
C282        O287   1.277       .  A
C282        C962   1.465       .  S
O283        C284   1.272       .  A
C284        C890   1.475       .  S
O289       Mg291   2.136       .  S
O289       Mg297   2.132       .  S
O289        C324   1.238       .  S
C290        O303   1.236       .  S
C290        O327   1.268       .  A
C290        H329   1.081       .  S
Mg291       O320   2.158       .  S
Mg291       O335   2.340       .  S
Mg291       O331   2.263       .  S
Mg291       O302   2.313       .  S
O292       Mg334   2.155       .  S
O292       Mg317   2.147       .  S
O292        C313   1.236       .  S
O293        C324   1.272       .  A
O293       Mg317   2.305       .  S
C294        O296   1.271       .  A
C294        O308   1.279       .  A
C294        C836   1.477       .  S
O295        C323   1.274       .  A
O295       Mg297   2.308       .  S
O296       Mg328   2.259       .  S
Mg297       O303   2.101       .  S
Mg297       O311   2.210       .  S
Mg297       O299   2.290       .  S
C298        O336   1.277       .  A
C298        O304   1.275       .  A
C298        C872   1.478       .  S
O299        C306   1.272       .  A
H300        C313   1.081       .  S
C301        O315   1.236       .  S
C301        O316   1.271       .  A
C301        H326   1.081       .  S
O302        C325   1.273       .  A
O303       Mg317   2.132       .  S
O304       Mg334   2.290       .  S
C305        O318   1.275       .  A
C305        O310   1.275       .  A
C305        C782   1.472       .  S
C306        O333   1.274       .  A
C306        C746   1.472       .  S
Mg307       O314   2.168       .  S
Mg307       O315   2.157       .  S
Mg307       O308   2.337       .  S
Mg307       O309   2.296       .  S
Mg307       O336   2.304       .  S
O309        C313   1.270       .  A
O310       Mg317   2.301       .  S
O311        C330   1.265       .  A
O312        C332   1.276       .  A
O312       Mg328   2.318       .  S
O314       Mg328   2.155       .  S
O314        C325   1.237       .  S
O315       Mg334   2.156       .  S
O316       Mg328   2.304       .  S
Mg317       O333   2.298       .  S
O318       Mg334   2.278       .  S
H319        C324   1.081       .  S
O320       Mg328   2.152       .  S
O320        C323   1.239       .  S
H321        C323   1.081       .  S
H322        C325   1.081       .  S
O327       Mg334   2.282       .  S
C330        O335   1.277       .  A
C330       C1145   1.469       .  S
O331        C332   1.271       .  A
C332        C764   1.475       .  S
O337       Mg339   2.133       .  S
O337       Mg345   2.134       .  S
O337        C372   1.238       .  S
C338        O351   1.235       .  S
C338        O375   1.267       .  A
C338        H377   1.081       .  S
Mg339       O368   2.160       .  S
Mg339       O383   2.344       .  S
Mg339       O379   2.267       .  S
Mg339       O350   2.315       .  S
O340       Mg382   2.157       .  S
O340       Mg365   2.143       .  S
O340        C361   1.237       .  S
O341        C372   1.272       .  A
O341       Mg365   2.304       .  S
C342        O344   1.273       .  A
C342        O356   1.279       .  A
C342        C929   1.480       .  S
O343        C371   1.274       .  A
O343       Mg345   2.306       .  S
O344       Mg376   2.269       .  S
Mg345       O351   2.101       .  S
Mg345       O359   2.206       .  S
Mg345       O347   2.281       .  S
C346        O384   1.277       .  A
C346        O352   1.274       .  A
C346        C821   1.477       .  S
O347        C354   1.270       .  A
H348        C361   1.081       .  S
C349        O363   1.237       .  S
C349        O364   1.272       .  A
C349        H374   1.081       .  S
O350        C373   1.273       .  A
O351       Mg365   2.135       .  S
O352       Mg382   2.281       .  S
C353        O366   1.275       .  A
C353        O358   1.276       .  A
C353        C767   1.475       .  S
C354        O381   1.274       .  A
C354        C728   1.470       .  S
Mg355       O362   2.169       .  S
Mg355       O363   2.159       .  S
Mg355       O356   2.340       .  S
Mg355       O357   2.296       .  S
Mg355       O384   2.307       .  S
O357        C361   1.270       .  A
O358       Mg365   2.307       .  S
O359        C378   1.264       .  A
O360        C380   1.277       .  A
O360       Mg376   2.320       .  S
O362       Mg376   2.149       .  S
O362        C373   1.237       .  S
O363       Mg382   2.162       .  S
O364       Mg376   2.308       .  S
Mg365       O381   2.302       .  S
O366       Mg382   2.284       .  S
H367        C372   1.081       .  S
O368       Mg376   2.151       .  S
O368        C371   1.240       .  S
H369        C371   1.081       .  S
H370        C373   1.081       .  S
O375       Mg382   2.279       .  S
C378        O383   1.278       .  A
C378       C1070   1.470       .  S
O379        C380   1.272       .  A
C380        C785   1.475       .  S
O385       Mg387   2.130       .  S
O385       Mg393   2.127       .  S
O385        C420   1.239       .  S
C386        O399   1.236       .  S
C386        O423   1.268       .  A
C386        H425   1.081       .  S
Mg387       O416   2.152       .  S
Mg387       O431   2.360       .  S
Mg387       O427   2.253       .  S
Mg387       O398   2.319       .  S
O388       Mg430   2.152       .  S
O388       Mg413   2.131       .  S
O388        C409   1.235       .  S
O389        C420   1.273       .  A
O389       Mg413   2.307       .  S
C390        O392   1.270       .  A
C390        O404   1.277       .  A
C390        C713   1.471       .  S
O391        C419   1.273       .  A
O391       Mg393   2.307       .  S
O392       Mg424   2.250       .  S
Mg393       O399   2.103       .  S
Mg393       O407   2.202       .  S
Mg393       O395   2.283       .  S
C394        O432   1.277       .  A
C394        O400   1.275       .  A
C394        C692   1.479       .  S
O395        C402   1.270       .  A
H396        C409   1.081       .  S
C397        O411   1.236       .  S
C397        O412   1.271       .  A
C397        H422   1.081       .  S
O398        C421   1.274       .  A
O399       Mg413   2.131       .  S
O400       Mg430   2.294       .  S
C401        O414   1.275       .  A
C401        O406   1.276       .  A
C401        C674   1.473       .  S
C402        O429   1.273       .  A
C402        C749   1.471       .  S
Mg403       O410   2.174       .  S
Mg403       O411   2.157       .  S
Mg403       O404   2.322       .  S
Mg403       O405   2.289       .  S
Mg403       O432   2.305       .  S
O405        C409   1.269       .  A
O406       Mg413   2.304       .  S
O407        C426   1.264       .  A
O408        C428   1.274   1_554  A
O408       Mg424   2.307       .  S
O410       Mg424   2.154       .  S
O410        C421   1.238       .  S
O411       Mg430   2.148       .  S
O412       Mg424   2.300       .  S
Mg413       O429   2.292       .  S
O414       Mg430   2.280       .  S
H415        C420   1.081       .  S
O416       Mg424   2.145       .  S
O416        C419   1.238       .  S
H417        C419   1.081       .  S
H418        C421   1.081       .  S
O423       Mg430   2.283       .  S
C426        O431   1.279       .  A
C426       C1055   1.472       .  S
O427        C428   1.271   1_554  A
C428        C656   1.469       .  S
O433       Mg435   2.140       .  S
O433       Mg441   2.131       .  S
O433        C468   1.239       .  S
C434        O447   1.236       .  S
C434        O471   1.267       .  A
C434        H473   1.081       .  S
Mg435       O464   2.159       .  S
Mg435       O479   2.368       .  S
Mg435       O475   2.277       .  S
Mg435       O446   2.318       .  S
O436       Mg478   2.155       .  S
O436       Mg461   2.137       .  S
O436        C457   1.235       .  S
O437        C468   1.273       .  A
O437       Mg461   2.305       .  S
C438        O440   1.271       .  A
C438        O452   1.278       .  A
C438        C638   1.477       .  S
O439        C467   1.273       .  A
O439       Mg441   2.306       .  S
O440       Mg472   2.260       .  S
Mg441       O447   2.101       .  S
Mg441       O455   2.197       .  S
Mg441       O443   2.286       .  S
C442        O480   1.277       .  A
C442        O448   1.272       .  A
C442        C623   1.477       .  S
O443        C450   1.271       .  A
H444        C457   1.081       .  S
C445        O459   1.236       .  S
C445        O460   1.270       .  A
C445        H470   1.081       .  S
O446        C469   1.274       .  A
O447       Mg461   2.135       .  S
O448       Mg478   2.274       .  S
C449        O462   1.273       .  A
C449        O454   1.277       .  A
C449        C659   1.469       .  S
C450        O477   1.275       .  A
C450        C731   1.474       .  S
Mg451       O458   2.174       .  S
Mg451       O459   2.162       .  S
Mg451       O452   2.332       .  S
Mg451       O453   2.292       .  S
Mg451       O480   2.311       .  S
O453        C457   1.269       .  A
O454       Mg461   2.308       .  S
O455        C474   1.264       .  A
O456        C476   1.275       .  A
O456       Mg472   2.305       .  S
O458       Mg472   2.156       .  S
O458        C469   1.237       .  S
O459       Mg478   2.145       .  S
O460       Mg472   2.299       .  S
Mg461       O477   2.303       .  S
O462       Mg478   2.261       .  S
H463        C468   1.081       .  S
O464       Mg472   2.155       .  S
O464        C467   1.239       .  S
H465        C467   1.081       .  S
H466        C469   1.081       .  S
O471       Mg478   2.280       .  S
C474        O479   1.280       .  A
C474       C1124   1.472       .  S
O475        C476   1.274       .  A
C476        C677   1.475       .  S
O481       Mg483   2.129       .  S
O481       Mg489   2.134       .  S
O481        C516   1.238       .  S
C482        O495   1.236       .  S
C482        O519   1.268       .  A
C482        H521   1.081       .  S
Mg483       O512   2.163       .  S
Mg483       O527   2.342       .  S
Mg483       O523   2.256       .  S
Mg483       O494   2.313       .  S
O484       Mg526   2.157       .  S
O484       Mg509   2.143       .  S
O484        C505   1.236       .  S
O485        C516   1.272       .  A
O485       Mg509   2.300       .  S
C486        O488   1.273       .  A
C486        O500   1.278       .  A
C486        C695   1.480       .  S
O487        C515   1.274       .  A
O487       Mg489   2.309       .  S
O488       Mg520   2.276       .  S
Mg489       O495   2.102       .  S
Mg489       O503   2.208       .  S
Mg489       O491   2.283       .  S
C490        O528   1.277       .  A
C490        O496   1.275       .  A
C490        C641   1.478       .  S
O491        C498   1.270       .  A
H492        C505   1.081       .  S
C493        O507   1.237       .  S
C493        O508   1.271       .  A
C493        H518   1.081       .  S
O494        C517   1.272       .  A
O495       Mg509   2.137       .  S
O496       Mg526   2.291       .  S
C497        O510   1.275       .  A
C497        O502   1.276       .  A
C497        C584   1.471       .  S
C498        O525   1.276       .  A
C498        C803   1.475       .  S
Mg499       O506   2.170       .  S
Mg499       O507   2.159       .  S
Mg499       O500   2.330       .  S
Mg499       O501   2.293       .  S
Mg499       O528   2.304       .  S
O501        C505   1.269       .  A
O502       Mg509   2.302       .  S
O503        C522   1.264       .  A
O504        C524   1.276       .  A
O504       Mg520   2.319       .  S
O506       Mg520   2.152       .  S
O506        C517   1.236       .  S
O507       Mg526   2.159       .  S
O508       Mg520   2.306       .  S
Mg509       O525   2.311       .  S
O510       Mg526   2.276       .  S
H511        C516   1.081       .  S
O512       Mg520   2.159       .  S
O512        C515   1.240       .  S
H513        C515   1.081       .  S
H514        C517   1.081       .  S
O519       Mg526   2.281       .  S
C522        O527   1.277       .  A
C522        C980   1.470       .  S
O523        C524   1.271       .  A
C524        C602   1.473       .  S
O529       Mg531   2.134       .  S
O529       Mg537   2.135       .  S
O529        C564   1.239       .  S
C530        O543   1.235       .  S
C530        O567   1.267       .  A
C530        H569   1.081       .  S
Mg531       O560   2.158       .  S
Mg531       O575   2.332       .  S
Mg531       O571   2.263       .  S
Mg531       O542   2.310       .  S
O532       Mg574   2.150       .  S
O532       Mg557   2.131       .  S
O532        C553   1.236       .  S
O533        C564   1.273       .  A
O533       Mg557   2.308       .  S
C534        O536   1.272       .  A
C534        O548   1.278       .  A
C534        C620   1.477       .  S
O535        C563   1.273       .  A
O535       Mg537   2.306       .  S
O536       Mg568   2.262       .  S
Mg537       O543   2.101       .  S
Mg537       O551   2.213       .  S
Mg537       O539   2.284       .  S
C538        O576   1.276       .  A
C538        O544   1.273       .  A
C538        C710   1.473       .  S
O539        C546   1.271       .  A
H540        C553   1.081       .  S
C541        O555   1.236       .  S
C541        O556   1.270       .  A
C541        H566   1.081       .  S
O542        C565   1.272       .  A
O543       Mg557   2.130       .  S
O544       Mg574   2.279       .  S
C545        O558   1.274       .  A
C545        O550   1.276   1_554  A
C545        C605   1.472       .  S
C546        O573   1.273       .  A
C546        C857   1.467       .  S
Mg547       O554   2.164       .  S
Mg547       O555   2.158       .  S
Mg547       O548   2.329       .  S
Mg547       O549   2.293       .  S
Mg547       O576   2.295       .  S
O549        C553   1.269       .  A
O550       Mg557   2.308       .  S
O551        C570   1.265       .  A
O552        C572   1.275       .  A
O552       Mg568   2.308       .  S
O554       Mg568   2.156       .  S
O554        C565   1.237       .  S
O555       Mg574   2.151       .  S
O556       Mg568   2.299       .  S
Mg557       O573   2.289       .  S
O558       Mg574   2.271   1_554  S
H559        C564   1.081       .  S
O560       Mg568   2.145       .  S
O560        C563   1.239       .  S
H561        C563   1.081       .  S
H562        C565   1.081       .  S
O567       Mg574   2.281       .  S
C570        O575   1.277       .  A
C570        C944   1.467       .  S
O571        C572   1.271       .  A
C572        C587   1.472       .  S
C577        C582   1.385       .  A
C577        C578   1.402       .  A
C577        N583   1.343       .  A
C578        H589   1.082       .  S
C578        C579   1.401       .  A
C579        C588   1.376       .  A
C579        C580   1.385       .  A
C580        C581   1.404       .  A
C580        N586   1.344       .  A
C581        H590   1.082       .  S
C581        C582   1.403       .  A
C582        C585   1.378       .  A
N583        C584   1.355       .  A
N583        H593   1.045       .  S
C584        C585   1.396       .  A
C585        H591   1.082       .  S
N586        C587   1.356       .  A
N586        H594   1.045       .  S
C587        C588   1.395       .  A
C588        H592   1.082       .  S
C595        C600   1.385       .  A
C595        C596   1.402       .  A
C595        N601   1.343       .  A
C596        H607   1.082       .  S
C596        C597   1.401       .  A
C597        C606   1.376       .  A
C597        C598   1.384       .  A
C598        C599   1.405       .  A
C598        N604   1.345       .  A
C599        H608   1.082       .  S
C599        C600   1.404       .  A
C600        C603   1.379       .  A
N601        C602   1.355       .  A
N601        H611   1.045       .  S
C602        C603   1.397       .  A
C603        H609   1.082       .  S
N604        C605   1.357       .  A
N604        H612   1.045       .  S
C605        C606   1.395       .  A
C606        H610   1.082       .  S
C613        C618   1.385       .  A
C613        C614   1.402   1_565  A
C613        N619   1.345       .  A
C614        H625   1.083       .  S
C614        C615   1.403       .  A
C615        C624   1.374       .  A
C615        C616   1.384       .  A
C616        C617   1.406   1_545  A
C616        N622   1.349       .  A
C617        H626   1.082       .  S
C617        C618   1.407       .  A
C618        C621   1.380       .  A
N619        C620   1.356       .  A
N619        H629   1.044       .  S
C620        C621   1.398       .  A
C621        H627   1.082       .  S
N622        C623   1.357       .  A
N622        H630   1.045       .  S
C623        C624   1.396       .  A
C624        H628   1.083       .  S
C631        C636   1.385       .  A
C631        C632   1.403   1_545  A
C631        N637   1.346       .  A
C632        H643   1.082       .  S
C632        C633   1.404       .  A
C633        C642   1.376       .  A
C633        C634   1.384       .  A
C634        C635   1.406   1_565  A
C634        N640   1.348       .  A
C635        H644   1.082       .  S
C635        C636   1.406       .  A
C636        C639   1.379       .  A
N637        C638   1.356       .  A
N637        H647   1.044       .  S
C638        C639   1.398       .  A
C639        H645   1.083       .  S
N640        C641   1.357       .  A
N640        H648   1.045       .  S
C641        C642   1.397       .  A
C642        H646   1.083       .  S
C649        C654   1.385       .  A
C649        C650   1.403       .  A
C649        N655   1.343       .  A
C650        H661   1.082       .  S
C650        C651   1.402       .  A
C651        C660   1.377       .  A
C651        C652   1.385       .  A
C652        C653   1.402       .  A
C652        N658   1.342       .  A
C653        H662   1.082       .  S
C653        C654   1.401       .  A
C654        C657   1.376       .  A
N655        C656   1.356       .  A
N655        H665   1.045       .  S
C656        C657   1.394       .  A
C657        H663   1.082       .  S
N658        C659   1.355       .  A
N658        H666   1.044       .  S
C659        C660   1.395       .  A
C660        H664   1.083       .  S
C667        C672   1.384       .  A
C667        C668   1.404       .  A
C667        N673   1.345       .  A
C668        H679   1.082       .  S
C668        C669   1.404       .  A
C669        C678   1.378       .  A
C669        C670   1.385       .  A
C670        C671   1.403       .  A
C670        N676   1.345       .  A
C671        H680   1.082       .  S
C671        C672   1.403       .  A
C672        C675   1.377       .  A
N673        C674   1.356       .  A
N673        H683   1.045       .  S
C674        C675   1.396       .  A
C675        H681   1.082       .  S
N676        C677   1.356       .  A
N676        H684   1.045       .  S
C677        C678   1.397       .  A
C678        H682   1.083       .  S
C685        C690   1.384       .  A
C685        C686   1.405       .  A
C685        N691   1.343       .  A
C686        H697   1.082       .  S
C686        C687   1.403   1_545  A
C687        C696   1.381       .  A
C687        C688   1.384       .  A
C688        C689   1.408       .  A
C688        N694   1.346       .  A
C689        H698   1.082       .  S
C689        C690   1.406   1_565  A
C690        C693   1.385       .  A
N691        C692   1.357       .  A
N691        H701   1.044       .  S
C692        C693   1.398       .  A
C693        H699   1.082       .  S
N694        C695   1.358       .  A
N694        H702   1.045       .  S
C695        C696   1.397       .  A
C696        H700   1.082       .  S
C703        C708   1.385       .  A
C703        C704   1.403   1_565  A
C703        N709   1.346       .  A
C704        H715   1.082       .  S
C704        C705   1.404       .  A
C705        C714   1.376   1_556  A
C705        C706   1.385   1_556  A
C706        C707   1.402   1_545  A
C706        N712   1.344       .  A
C707        H716   1.083       .  S
C707        C708   1.402   1_554  A
C708        C711   1.374       .  A
N709        C710   1.356       .  A
N709        H719   1.044       .  S
C710        C711   1.396       .  A
C711        H717   1.083   1_556  S
N712        C713   1.355       .  A
N712        H720   1.045       .  S
C713        C714   1.396       .  A
C714        H718   1.083   1_554  S
C721        C726   1.384       .  A
C721        C722   1.406       .  A
C721        N727   1.342       .  A
C722        H733   1.082       .  S
C722        C723   1.403       .  A
C723        C732   1.384       .  A
C723        C724   1.384       .  A
C724        C725   1.406       .  A
C724        N730   1.342       .  A
C725        H734   1.082       .  S
C725        C726   1.403       .  A
C726        C729   1.384       .  A
N727        C728   1.356       .  A
N727        H737   1.045       .  S
C728        C729   1.395       .  A
C729        H735   1.082       .  S
N730        C731   1.357       .  A
N730        H738   1.045       .  S
C731        C732   1.396       .  A
C732        H736   1.082       .  S
C739        C744   1.384       .  A
C739        C740   1.405       .  A
C739        N745   1.342       .  A
C740        H751   1.082       .  S
C740        C741   1.402       .  A
C741        C750   1.382       .  A
C741        C742   1.384       .  A
C742        C743   1.406       .  A
C742        N748   1.342       .  A
C743        H752   1.082       .  S
C743        C744   1.403       .  A
C744        C747   1.383       .  A
N745        C746   1.356       .  A
N745        H755   1.045       .  S
C746        C747   1.395       .  A
C747        H753   1.082       .  S
N748        C749   1.357       .  A
N748        H756   1.044       .  S
C749        C750   1.394       .  A
C750        H754   1.082       .  S
C757        C762   1.384       .  A
C757        C758   1.405       .  A
C757        N763   1.344       .  A
C758        H769   1.082       .  S
C758        C759   1.404       .  A
C759        C768   1.380       .  A
C759        C760   1.384       .  A
C760        C761   1.404       .  A
C760        N766   1.344       .  A
C761        H770   1.082       .  S
C761        C762   1.403       .  A
C762        C765   1.379       .  A
N763        C764   1.357       .  A
N763        H773   1.045       .  S
C764        C765   1.396       .  A
C765        H771   1.082       .  S
N766        C767   1.356       .  A
N766        H774   1.045       .  S
C767        C768   1.397       .  A
C768        H772   1.083       .  S
C775        C780   1.385       .  A
C775        C776   1.401       .  A
C775        N781   1.342       .  A
C776        H787   1.082       .  S
C776        C777   1.401       .  A
C777        C786   1.376   1_554  A
C777        C778   1.384       .  A
C778        C779   1.406       .  A
C778        N784   1.346   1_554  A
C779        H788   1.083       .  S
C779        C780   1.406       .  A
C780        C783   1.381       .  A
N781        C782   1.354       .  A
N781        H791   1.045       .  S
C782        C783   1.398       .  A
C783        H789   1.083       .  S
N784        C785   1.358       .  A
N784        H792   1.045       .  S
C785        C786   1.394       .  A
C786        H790   1.082       .  S
C793        C798   1.384       .  A
C793        C794   1.406       .  A
C793        N799   1.343       .  A
C794        H805   1.082       .  S
C794        C795   1.403       .  A
C795        C804   1.384       .  A
C795        C796   1.384       .  A
C796        C797   1.407       .  A
C796        N802   1.343       .  A
C797        H806   1.082       .  S
C797        C798   1.405       .  A
C798        C801   1.385       .  A
N799        C800   1.356       .  A
N799        H809   1.045       .  S
C800        C801   1.397       .  A
C801        H807   1.082       .  S
N802        C803   1.357       .  A
N802        H810   1.045       .  S
C803        C804   1.395       .  A
C804        H808   1.082       .  S
C811        C816   1.385       .  A
C811        C812   1.401   1_455  A
C811        N817   1.345       .  A
C812        H823   1.082       .  S
C812        C813   1.402       .  A
C813        C822   1.373       .  A
C813        C814   1.384       .  A
C814        C815   1.406   1_655  A
C814        N820   1.349       .  A
C815        H824   1.082       .  S
C815        C816   1.407       .  A
C816        C819   1.379       .  A
N817        C818   1.355       .  A
N817        H827   1.045       .  S
C818        C819   1.398       .  A
C819        H825   1.083       .  S
N820        C821   1.358       .  A
N820        H828   1.044       .  S
C821        C822   1.396       .  A
C822        H826   1.083       .  S
C829        C834   1.384       .  A
C829        C830   1.407       .  A
C829        N835   1.344       .  A
C830        H841   1.082       .  S
C830        C831   1.405   1_655  A
C831        C840   1.384       .  A
C831        C832   1.384       .  A
C832        C833   1.404       .  A
C832        N838   1.341       .  A
C833        H842   1.082       .  S
C833        C834   1.402   1_455  A
C834        C837   1.381       .  A
N835        C836   1.358       .  A
N835        H845   1.045       .  S
C836        C837   1.396       .  A
C837        H843   1.082       .  S
N838        C839   1.357       .  A
N838        H846   1.044       .  S
C839        C840   1.397       .  A
C840        H844   1.082       .  S
C847        C852   1.384       .  A
C847        C848   1.405       .  A
C847        N853   1.341       .  A
C848        H859   1.082   1_556  S
C848        C849   1.402       .  A
C849        C858   1.383       .  A
C849        C850   1.385       .  A
C850        C851   1.404       .  A
C850        N856   1.341       .  A
C851        H860   1.082       .  S
C851        C852   1.401       .  A
C852        C855   1.382       .  A
N853        C854   1.357       .  A
N853        H863   1.044   1_556  S
C854        C855   1.394       .  A
C855        H861   1.082       .  S
N856        C857   1.355       .  A
N856        H864   1.045       .  S
C857        C858   1.394       .  A
C858        H862   1.082   1_556  S
C865        C870   1.384       .  A
C865        C866   1.406   1_655  A
C865        N871   1.348       .  A
C866        H877   1.082       .  S
C866        C867   1.406       .  A
C867        C876   1.378       .  A
C867        C868   1.385       .  A
C868        C869   1.402   1_455  A
C868        N874   1.346       .  A
C869        H878   1.082       .  S
C869        C870   1.403       .  A
C870        C873   1.374       .  A
N871        C872   1.357       .  A
N871        H881   1.045       .  S
C872        C873   1.396       .  A
C873        H879   1.083       .  S
N874        C875   1.355       .  A
N874        H882   1.044       .  S
C875        C876   1.398       .  A
C876        H880   1.083       .  S
C883        C888   1.384       .  A
C883        C884   1.405       .  A
C883        N889   1.345       .  A
C884        H895   1.082       .  S
C884        C885   1.405       .  A
C885        C894   1.379       .  A
C885        C886   1.384       .  A
C886        C887   1.404       .  A
C886        N892   1.345       .  A
C887        H896   1.082       .  S
C887        C888   1.403       .  A
C888        C891   1.378       .  A
N889        C890   1.357       .  A
N889        H899   1.045       .  S
C890        C891   1.396       .  A
C891        H897   1.082       .  S
N892        C893   1.356       .  A
N892        H900   1.044       .  S
C893        C894   1.397       .  A
C894        H898   1.082       .  S
C901        C906   1.384       .  A
C901        C902   1.403       .  A
C901        N907   1.343       .  A
C902        H913   1.082       .  S
C902        C903   1.402       .  A
C903        C912   1.379       .  A
C903        C904   1.384       .  A
C904        C905   1.406       .  A
C904        N910   1.344       .  A
C905        H914   1.082       .  S
C905        C906   1.405       .  A
C906        C909   1.381       .  A
N907        C908   1.356       .  A
N907        H917   1.045       .  S
C908        C909   1.398       .  A
C909        H915   1.082       .  S
N910        C911   1.357       .  A
N910        H918   1.045       .  S
C911        C912   1.395       .  A
C912        H916   1.082       .  S
C919        C924   1.384       .  A
C919        C920   1.406   1_455  A
C919        N925   1.349       .  A
C920        H931   1.082       .  S
C920        C921   1.407       .  A
C921        C930   1.380       .  A
C921        C922   1.384       .  A
C922        C923   1.404   1_655  A
C922        N928   1.347       .  A
C923        H932   1.082       .  S
C923        C924   1.404       .  A
C924        C927   1.376       .  A
N925        C926   1.357       .  A
N925        H935   1.045       .  S
C926        C927   1.397       .  A
C927        H933   1.083       .  S
N928        C929   1.357       .  A
N928        H936   1.044       .  S
C929        C930   1.398       .  A
C930        H934   1.082       .  S
C937        C942   1.384       .  A
C937        C938   1.404       .  A
C937        N943   1.339       .  A
C938        H949   1.082       .  S
C938        C939   1.401       .  A
C939        C948   1.382       .  A
C939        C940   1.384       .  A
C940        C941   1.402       .  A
C940        N946   1.337       .  A
C941        H950   1.082       .  S
C941        C942   1.399       .  A
C942        C945   1.380       .  A
N943        C944   1.356       .  A
N943        H953   1.046       .  S
C944        C945   1.393       .  A
C945        H951   1.082       .  S
N946        C947   1.356       .  A
N946        H954   1.045       .  S
C947        C948   1.394       .  A
C948        H952   1.082       .  S
C955        C960   1.385       .  A
C955        C956   1.399       .  A
C955        N961   1.335       .  A
C956        H967   1.083       .  S
C956        C957   1.396       .  A
C957        C966   1.375       .  A
C957        C958   1.384       .  A
C958        C959   1.407       .  A
C958        N964   1.342       .  A
C959        H968   1.082       .  S
C959        C960   1.404       .  A
C960        C963   1.385       .  A
N961        C962   1.354       .  A
N961        H971   1.045       .  S
C962        C963   1.395       .  A
C963        H969   1.082       .  S
N964        C965   1.357       .  A
N964        H972   1.044       .  S
C965        C966   1.392       .  A
C966        H970   1.082       .  S
C973        C978   1.385       .  A
C973        C974   1.400       .  A
C973        N979   1.346       .  A
C974        H985   1.082       .  S
C974        C975   1.401       .  A
C975        C984   1.370       .  A
C975        C976   1.385       .  A
C976        C977   1.403       .  A
C976        N982   1.347       .  A
C977        H986   1.082       .  S
C977        C978   1.404       .  A
C978        C981   1.373       .  A
N979        C980   1.354       .  A
N979        H989   1.044       .  S
C980        C981   1.397       .  A
C981        H987   1.083       .  S
N982        C983   1.355       .  A
N982        H990   1.044       .  S
C983        C984   1.395       .  A
C984        H988   1.083       .  S
C991        C996   1.386       .  A
C991        C992   1.397       .  A
C991        N997   1.343       .  A
C992       H1003   1.082       .  S
C992        C993   1.398       .  A
C993       C1002   1.366       .  A
C993        C994   1.385       .  A
C994        C995   1.404       .  A
C994       N1000   1.349       .  A
C995       H1004   1.082       .  S
C995        C996   1.406       .  A
C996        C999   1.375       .  A
N997        C998   1.352       .  A
N997       H1007   1.045       .  S
C998        C999   1.397       .  A
C999       H1005   1.083       .  S
N1000      C1001   1.356       .  A
N1000      H1008   1.044       .  S
C1001      C1002   1.392       .  A
C1002      H1006   1.083       .  S
C1009      C1014   1.384       .  A
C1009      C1010   1.405       .  A
C1009      N1015   1.346   1_556  A
C1010      H1021   1.082       .  S
C1010      C1011   1.405       .  A
C1011      C1020   1.380       .  A
C1011      C1012   1.384       .  A
C1012      C1013   1.404       .  A
C1012      N1018   1.345       .  A
C1013      H1022   1.082       .  S
C1013      C1014   1.404       .  A
C1014      C1017   1.379   1_556  A
N1015      C1016   1.357       .  A
N1015      H1025   1.045       .  S
C1016      C1017   1.396       .  A
C1017      H1023   1.082       .  S
N1018      C1019   1.357       .  A
N1018      H1026   1.045       .  S
C1019      C1020   1.397       .  A
C1020      H1024   1.082       .  S
C1027      C1032   1.385       .  A
C1027      C1028   1.402       .  A
C1027      N1033   1.342       .  A
C1028      H1039   1.082       .  S
C1028      C1029   1.401       .  A
C1029      C1038   1.377       .  A
C1029      C1030   1.385       .  A
C1030      C1031   1.401       .  A
C1030      N1036   1.340       .  A
C1031      H1040   1.082       .  S
C1031      C1032   1.400       .  A
C1032      C1035   1.375       .  A
N1033      C1034   1.355       .  A
N1033      H1043   1.045       .  S
C1034      C1035   1.394       .  A
C1035      H1041   1.082       .  S
N1036      C1037   1.354       .  A
N1036      H1044   1.045       .  S
C1037      C1038   1.394       .  A
C1038      H1042   1.082       .  S
C1045      C1050   1.384       .  A
C1045      C1046   1.409       .  A
C1045      N1051   1.344       .  A
C1046      H1057   1.082   1_554  S
C1046      C1047   1.406       .  A
C1047      C1056   1.389       .  A
C1047      C1048   1.384       .  A
C1048      C1049   1.401       .  A
C1048      N1054   1.336       .  A
C1049      H1058   1.083       .  S
C1049      C1050   1.397       .  A
C1050      C1053   1.378       .  A
N1051      C1052   1.358       .  A
N1051      H1061   1.044   1_554  S
C1052      C1053   1.392       .  A
C1053      H1059   1.082       .  S
N1054      C1055   1.355       .  A
N1054      H1062   1.045       .  S
C1055      C1056   1.397       .  A
C1056      H1060   1.082       .  S
C1063      C1068   1.385       .  A
C1063      C1064   1.399       .  A
C1063      N1069   1.346       .  A
C1064      H1075   1.082       .  S
C1064      C1065   1.401       .  A
C1065      C1074   1.368       .  A
C1065      C1066   1.385       .  A
C1066      C1067   1.403       .  A
C1066      N1072   1.348       .  A
C1067      H1076   1.082       .  S
C1067      C1068   1.405       .  A
C1068      C1071   1.372       .  A
N1069      C1070   1.353       .  A
N1069      H1079   1.044       .  S
C1070      C1071   1.397       .  A
C1071      H1077   1.083       .  S
N1072      C1073   1.355       .  A
N1072      H1080   1.045       .  S
C1073      C1074   1.395       .  A
C1074      H1078   1.083       .  S
C1081      C1086   1.384       .  A
C1081      C1082   1.406       .  A
C1081      N1087   1.343       .  A
C1082      H1093   1.082       .  S
C1082      C1083   1.404       .  A
C1083      C1092   1.382       .  A
C1083      C1084   1.384       .  A
C1084      C1085   1.406       .  A
C1084      N1090   1.344       .  A
C1085      H1094   1.082       .  S
C1085      C1086   1.404       .  A
C1086      C1089   1.383       .  A
N1087      C1088   1.357       .  A
N1087      H1097   1.044       .  S
C1088      C1089   1.396       .  A
C1089      H1095   1.082       .  S
N1090      C1091   1.357       .  A
N1090      H1098   1.045       .  S
C1091      C1092   1.396       .  A
C1092      H1096   1.082       .  S
C1099      C1104   1.385       .  A
C1099      C1100   1.400       .  A
C1099      N1105   1.345       .  A
C1100      H1111   1.082       .  S
C1100      C1101   1.402       .  A
C1101      C1110   1.372       .  A
C1101      C1102   1.385       .  A
C1102      C1103   1.403       .  A
C1102      N1108   1.346       .  A
C1103      H1112   1.083       .  S
C1103      C1104   1.404       .  A
C1104      C1107   1.374       .  A
N1105      C1106   1.354       .  A
N1105      H1115   1.044       .  S
C1106      C1107   1.397       .  A
C1107      H1113   1.083       .  S
N1108      C1109   1.355       .  A
N1108      H1116   1.046       .  S
C1109      C1110   1.395       .  A
C1110      H1114   1.083       .  S
C1117      C1122   1.384       .  A
C1117      C1118   1.400       .  A
C1117      N1123   1.335       .  A
C1118      H1129   1.082       .  S
C1118      C1119   1.396       .  A
C1119      C1128   1.377       .  A
C1119      C1120   1.384       .  A
C1120      C1121   1.410       .  A
C1120      N1126   1.344       .  A
C1121      H1130   1.082       .  S
C1121      C1122   1.406       .  A
C1122      C1125   1.390       .  A
N1123      C1124   1.355       .  A
N1123      H1133   1.045       .  S
C1124      C1125   1.398       .  A
C1125      H1131   1.082       .  S
N1126      C1127   1.358       .  A
N1126      H1134   1.044       .  S
C1127      C1128   1.392       .  A
C1128      H1132   1.082       .  S
C1135      C1140   1.385       .  A
C1135      C1136   1.401       .  A
C1135      N1141   1.346       .  A
C1136      H1147   1.082       .  S
C1136      C1137   1.403       .  A
C1137      C1146   1.371       .  A
C1137      C1138   1.385       .  A
C1138      C1139   1.401       .  A
C1138      N1144   1.347       .  A
C1139      H1148   1.082       .  S
C1139      C1140   1.403       .  A
C1140      C1143   1.371       .  A
N1141      C1142   1.354       .  A
N1141      H1151   1.045       .  S
C1142      C1143   1.396       .  A
C1143      H1149   1.083       .  S
N1144      C1145   1.354       .  A
N1144      H1152   1.044       .  S
C1145      C1146   1.396       .  A
C1146      H1150   1.083       .  S
C1153      C1158   1.385       .  A
C1153      C1154   1.404       .  A
C1153      N1159   1.345       .  A
C1154      H1165   1.082       .  S
C1154      C1155   1.404       .  A
C1155      C1164   1.378       .  A
C1155      C1156   1.385       .  A
C1156      C1157   1.402       .  A
C1156      N1162   1.343       .  A
C1157      H1166   1.082       .  S
C1157      C1158   1.401       .  A
C1158      C1161   1.376       .  A
N1159      C1160   1.356       .  A
N1159      H1169   1.045       .  S
C1160      C1161   1.395       .  A
C1161      H1167   1.082       .  S
N1162      C1163   1.355       .  A
N1162      H1170   1.045       .  S
C1163      C1164   1.396       .  A
C1164      H1168   1.083       .  S
C1171      C1176   1.385       .  A
C1171      C1172   1.402       .  A
C1171      N1177   1.341       .  A
C1172      H1183   1.082       .  S
C1172      C1173   1.401       .  A
C1173      C1182   1.377       .  A
C1173      C1174   1.385       .  A
C1174      C1175   1.403       .  A
C1174      N1180   1.343       .  A
C1175      H1184   1.082       .  S
C1175      C1176   1.402       .  A
C1176      C1179   1.378       .  A
N1177      C1178   1.355       .  A
N1177      H1187   1.045       .  S
C1178      C1179   1.395       .  A
C1179      H1185   1.082       .  S
N1180      C1181   1.356       .  A
N1180      H1188   1.044       .  S
C1181      C1182   1.395       .  A
C1182      H1186   1.083       .  S
C1189      C1194   1.384       .  A
C1189      C1190   1.404       .  A
C1189      N1195   1.346       .  A
C1190      H1201   1.082       .  S
C1190      C1191   1.404       .  A
C1191      C1200   1.379       .  A
C1191      C1192   1.384       .  A
C1192      C1193   1.407       .  A
C1192      N1198   1.348       .  A
C1193      H1202   1.082       .  S
C1193      C1194   1.407       .  A
C1194      C1197   1.381       .  A
N1195      C1196   1.356       .  A
N1195      H1205   1.045       .  S
C1196      C1197   1.399       .  A
C1197      H1203   1.083       .  S
N1198      C1199   1.358       .  A
N1198      H1206   1.044       .  S
C1199      C1200   1.396       .  A
C1200      H1204   1.082       .  S
C1207      C1212   1.385       .  A
C1207      C1208   1.404       .  A
C1207      N1213   1.342       .  A
C1208      H1219   1.082       .  S
C1208      C1209   1.402       .  A
C1209      C1218   1.381       .  A
C1209      C1210   1.384       .  A
C1210      C1211   1.403       .  A
C1210      N1216   1.341       .  A
C1211      H1220   1.083       .  S
C1211      C1212   1.401       .  A
C1212      C1215   1.379       .  A
N1213      C1214   1.356       .  A
N1213      H1223   1.045       .  S
C1214      C1215   1.395       .  A
C1215      H1221   1.083       .  S
N1216      C1217   1.357       .  A
N1216      H1224   1.045       .  S
C1217      C1218   1.395       .  A
C1218      H1222   1.082       .  S
