geometry optimzed in LAMMPS
_audit_creation_date              2020-11-30 
_audit_creation_method            'lammps2cif' 
_symmetry_space_group_name_H-M    'P1' 
_symmetry_Int_Tables_number       1 
_symmetry_cell_setting            triclinic 
loop_ 
_symmetry_equiv_pos_as_xyz 
  x,y,z 
_cell_length_a                    34.241011308687504 
_cell_length_b                    34.52300160452391 
_cell_length_c                    34.525508462991404 
_cell_angle_alpha                 90.11827225836969 
_cell_angle_beta                  89.61147570906274 
_cell_angle_gamma                 90.54399151515565 
loop_ 
_atom_site_label 
_atom_site_type_symbol 
_atom_site_fract_x 
_atom_site_fract_y 
_atom_site_fract_z 
_atom_site_charge 
O1          O  0.61145786  0.93407911  0.26452731    -0.86470
O2          O  0.45303188  0.08428596  0.25326678    -0.86630
O3          O  0.56272545  0.04439002  0.19887436    -0.88300
O4          O  0.56185724  0.04788758  0.32468019    -0.87060
O5          O  0.52976451  0.01497574  0.37347940    -0.86650
O6          O  0.52717899  0.01172515  0.15282758    -0.88020
O7          O  0.52007214  0.08736679  0.25631359    -0.86500
O8          O  0.61119454  0.00039369  0.26325949    -0.86080
Zr9        Zr  0.54248061  0.02075486  0.26223266     2.84310
O10         O  0.48693627  0.02030918  0.30220876    -1.08060
O11         O  0.54259313  0.96500038  0.22352276    -1.08790
C12         C  0.62889951  0.96738869  0.26450814     1.06640
C13         C  0.48624158  0.10260920  0.25105629     1.06580
C14         C  0.55199918  0.03822039  0.16359228     1.09560
C15         C  0.55331382  0.04141223  0.36061632     1.07340
H16         H  0.48473679  0.03914695  0.20707008     0.32900
O17         O  0.48595499  0.01709359  0.22405249    -1.29010
H18         H  0.56693305  0.96797037  0.31900855     0.32580
O19         O  0.54380830  0.96689433  0.30316415    -1.30690
O20         O  0.36330134  0.99156466  0.27100427    -0.86460
O21         O  0.52290571  0.84323910  0.25734637    -0.87960
O22         O  0.43591644  0.00360746  0.15535223    -0.86540
O23         O  0.44479751  0.01565050  0.37261724    -0.86590
O24         O  0.53444464  0.92212631  0.37401850    -0.86300
O25         O  0.53762262  0.92037030  0.15543814    -0.86110
O26         O  0.40649879  0.88382184  0.20675247    -0.86480
O27         O  0.41708463  0.88204772  0.33029310    -0.85940
O28         O  0.43752804  0.91632892  0.15703673    -0.87000
O29         O  0.44463545  0.92096589  0.37704324    -0.86160
O30         O  0.40154535  0.03390070  0.20375759    -0.86560
O31         O  0.57186066  0.89043324  0.20375603    -0.86280
O32         O  0.56720520  0.88883592  0.32618917    -0.85930
O33         O  0.41278339  0.04756698  0.32400796    -0.86340
O34         O  0.36637441  0.92529438  0.27149654    -0.86640
O35         O  0.45599820  0.84017956  0.26117507    -0.87980
Zr36       Zr  0.43076341  0.01688558  0.26419707     2.83100
Zr37       Zr  0.54403546  0.91105358  0.26435178     2.83500
Zr38       Zr  0.48629758  0.96195740  0.18473237     2.84090
Zr39       Zr  0.48813829  0.96644541  0.34332434     2.83360
Zr40       Zr  0.43427810  0.90691141  0.26691489     2.84220
O41         O  0.48976102  0.90956020  0.30568030    -1.08550
O42         O  0.43183120  0.96083685  0.22624596    -1.08050
C43         C  0.34749073  0.95732823  0.27359570     1.06610
C44         C  0.48979243  0.82488560  0.25561384     1.09230
C45         C  0.40875957  0.02665429  0.16795785     1.06790
C46         C  0.42154110  0.04206954  0.35963814     1.07140
C47         C  0.55961442  0.89697478  0.36182381     1.06730
C48         C  0.56499491  0.89770609  0.16798437     1.06280
C49         C  0.41192743  0.89173491  0.17066707     1.06710
C50         C  0.42311854  0.89220333  0.36566467     1.06220
H51         H  0.48880350  0.88536768  0.20885326     0.32900
O52         O  0.48850601  0.90799578  0.22530781    -1.29650
H53         H  0.40946269  0.96280319  0.32232577     0.32920
O54         O  0.43200494  0.96305860  0.30537164    -1.31030
C55         C  0.48396011  0.67599521  0.17850542     0.03150
C56         C  0.44788571  0.65997283  0.16647555    -0.13000
C57         C  0.44730596  0.62528352  0.14504208     0.00650
C58         C  0.48205077  0.60604198  0.13754070    -0.11530
C59         C  0.51780308  0.62166658  0.14864323     0.03140
C60         C  0.51897176  0.65686109  0.16899097    -0.10950
H61         H  0.42089436  0.67507780  0.17236580     0.08740
H62         H  0.48135505  0.57924734  0.12101019     0.06260
H63         H  0.54686158  0.66937072  0.17720902     0.06110
C64         C  0.48502537  0.25714379  0.18564302     0.03150
C65         C  0.44957346  0.26782487  0.16840578    -0.13000
C66         C  0.44846039  0.29906020  0.14280706     0.00650
C67         C  0.48280540  0.31931911  0.13432897    -0.11530
C68         C  0.51782294  0.31187415  0.15341159     0.03140
C69         C  0.51894425  0.27995683  0.17903995    -0.10950
H70         H  0.42337267  0.25064163  0.17342914     0.08740
H71         H  0.48199696  0.34128402  0.11207514     0.06260
H72         H  0.54613692  0.27177132  0.19241476     0.06110
C73         C  0.18142684  0.95162377  0.31176909     0.03150
C74         C  0.16389787  0.98706307  0.32184888    -0.13000
C75         C  0.12634828  0.98787371  0.33810771     0.00650
C76         C  0.10590889  0.95340917  0.34410543    -0.11530
C77         C  0.12422839  0.91779082  0.33900676     0.03140
C78         C  0.16122815  0.91671765  0.32104741    -0.10950
H79         H  0.18036832  0.01392155  0.31983327     0.08740
H80         H  0.07769941  0.95431825  0.35861073     0.06260
H81         H  0.17512994  0.88898224  0.31689145     0.06110
C82         C  0.78918097  0.95303824  0.31622346     0.03150
C83         C  0.79931662  0.91518787  0.32819503    -0.13000
C84         C  0.83627890  0.90804754  0.34404046     0.00650
C85         C  0.86278813  0.93855845  0.34851149    -0.11530
C86         C  0.85105652  0.97676788  0.34334488     0.03140
C87         C  0.81594175  0.98357518  0.32365855    -0.10950
H88         H  0.77835357  0.89159243  0.32619164     0.08740
H89         H  0.89120270  0.93272462  0.36073574     0.06260
H90         H  0.80898604  0.01287827  0.31566358     0.06110
O91         O  0.34017742  0.50656882  0.04880621    -0.86470
O92         O  0.11838588  0.50592488  0.05536739    -0.86630
O93         O  0.23735010  0.58222751  0.04397285    -0.88300
O94         O  0.22642820  0.49493132  0.13097210    -0.87060
O95         O  0.22696674  0.42869777  0.13210739    -0.86650
O96         O  0.23822698  0.58340344  0.97772693    -0.88020
O97         O  0.16774778  0.54095355  0.08437531    -0.86500
O98         O  0.29318200  0.53648482  0.08584351    -0.86080
Zr99       Zr  0.23002090  0.51510208  0.06355090     2.84310
O100        O  0.18865192  0.46110318  0.06480615    -1.08060
O101        O  0.26981707  0.51487422  0.00823996    -1.08790
C102        C  0.32877174  0.53078226  0.07528071     1.06640
C103        C  0.13150785  0.53274019  0.07830400     1.06580
C104        C  0.24114531  0.60015971  0.01145134     1.09560
C105        C  0.22494837  0.46217876  0.14886819     1.07340
H106        H  0.17430599  0.53915410  0.00928174     0.32900
O107        O  0.18954439  0.51575828  0.00927942    -1.29010
H108        H  0.28663788  0.46033503  0.08599199     0.32580
O109        O  0.27011310  0.46054073  0.06342764    -1.30690
O110        O  0.11395240  0.41951239  0.96132446    -0.86460
O111        O  0.33601409  0.41491475  0.95730058    -0.87960
O112        O  0.16943708  0.53943851  0.93138363    -0.86540
O113        O  0.16713541  0.38238403  0.08752168    -0.86590
O114        O  0.29111313  0.38141353  0.08375971    -0.86300
O115        O  0.29162900  0.53627881  0.92814212    -0.86110
O116        O  0.22367120  0.42477202  0.88729495    -0.86480
O117        O  0.23189532  0.33629928  0.97940108    -0.85940
O118        O  0.22670350  0.49108671  0.88748410    -0.87000
O119        O  0.23160725  0.33981808  0.04554704    -0.86160
O120        O  0.12105447  0.50566581  0.96338554    -0.86560
O121        O  0.33944388  0.50249085  0.95919428    -0.86280
O122        O  0.33871108  0.41059585  0.04661035    -0.85930
O123        O  0.11843328  0.41249546  0.05354650    -0.86340
O124        O  0.15977626  0.38385614  0.92887944    -0.86640
O125        O  0.28681556  0.38042867  0.92737062    -0.87980
Zr126      Zr  0.14868182  0.46023791  0.00974233     2.83100
Zr127      Zr  0.30780633  0.45906430  0.00603232     2.83500
Zr128      Zr  0.22982376  0.51523542  0.95437471     2.84090
Zr129      Zr  0.22855730  0.40687242  0.06444052     2.83360
Zr130      Zr  0.22505293  0.40294449  0.95401905     2.84220
O131        O  0.26612837  0.40505763  0.00790723    -1.08550
O132        O  0.18893853  0.46009318  0.95504725    -1.08050
C133        C  0.12391684  0.39456754  0.93480243     1.06610
C134        C  0.32303964  0.38943555  0.93274952     1.09230
C135        C  0.13360378  0.53086579  0.93834988     1.06790
C136        C  0.13132647  0.38788094  0.07857722     1.07140
C137        C  0.32670133  0.38567751  0.07204523     1.06730
C138        C  0.32745282  0.52739145  0.93407271     1.06280
C139        C  0.22431279  0.45784995  0.87001894     1.06710
C140        C  0.23495923  0.32096847  0.01359273     1.06220
H141        H  0.28165777  0.45811067  0.92903415     0.32900
O142        O  0.26624758  0.45828748  0.95254617    -1.29650
H143        H  0.17086412  0.38097126  0.01061023     0.32920
O144        O  0.18697444  0.40407949  0.01025959    -1.31030
C145        C  0.17268505  0.45737984  0.71034520     0.03150
C146        C  0.14988829  0.42380577  0.70119057    -0.13000
C147        C  0.12672986  0.42241279  0.66758789     0.00650
C148        C  0.12404314  0.45549468  0.64479520    -0.11530
C149        C  0.14484321  0.48903801  0.65359986     0.03140
C150        C  0.17127133  0.48890495  0.68430928    -0.10950
H151        H  0.14909066  0.39905614  0.72032802     0.08740
H152        H  0.10488416  0.45540026  0.61992460     0.06260
H153        H  0.19010343  0.51376972  0.68708345     0.06110
C154        C  0.18588206  0.45519707  0.31353952     0.03150
C155        C  0.17268442  0.48846431  0.33369179    -0.13000
C156        C  0.15236827  0.48489290  0.36893120     0.00650
C157        C  0.15017798  0.44897969  0.38693561    -0.11530
C158        C  0.16059034  0.41539880  0.36708821     0.03140
C159        C  0.17892143  0.41851875  0.33058297    -0.10950
H160        H  0.17568271  0.51696197  0.32098389     0.08740
H161        H  0.13489900  0.44671779  0.41448155     0.06260
H162        H  0.18484447  0.39231270  0.31447374     0.06110
C163        C  0.30883924  0.17094338  0.01422268     0.03150
C164        C  0.31369943  0.14657051  0.04684375    -0.13000
C165        C  0.34158496  0.11673653  0.04618231     0.00650
C166        C  0.36496325  0.11232429  0.01330744    -0.11530
C167        C  0.35883029  0.13409201  0.98012170     0.03140
C168        C  0.33160883  0.16401634  0.98080225    -0.10950
H169        H  0.29592357  0.15075856  0.07254217     0.08740
H170        H  0.38713870  0.09015954  0.01272950     0.06260
H171        H  0.32864791  0.18184885  0.95527025     0.06110
C172        C  0.28626172  0.76567695  0.01721185     0.03150
C173        C  0.29626130  0.78361782  0.05296639    -0.13000
C174        C  0.31628489  0.81945221  0.05388224     0.00650
C175        C  0.32567649  0.83770239  0.01904002    -0.11530
C176        C  0.31394549  0.82275805  0.98322214     0.03140
C177        C  0.29492053  0.78618392  0.98263044    -0.10950
H178        H  0.28964356  0.76940611  0.08016277     0.08740
H179        H  0.34470987  0.86287864  0.02005272     0.06260
H180        H  0.28861978  0.77282457  0.95514928     0.06110
O181        O  0.06238837  0.14207495  0.42189500    -0.86470
O182        O  0.90616352  0.14210312  0.58024359    -0.86630
O183        O  0.03027802  0.09525764  0.55298286    -0.88300
O184        O  0.94666294  0.09304207  0.45623776    -0.87060
O185        O  0.91289516  0.13864290  0.42222927    -0.86650
O186        O  0.06016550  0.14467786  0.58676176    -0.88020
O187        O  0.93536127  0.09497228  0.54309408    -0.86500
O188        O  0.03230008  0.09410144  0.45779039    -0.86080
Zr189      Zr  0.98774151  0.12489581  0.50437570     2.84310
O190        O  0.93162799  0.16302130  0.50504080    -1.08060
O191        O  0.04337000  0.16486524  0.50340535    -1.08790
C192        C  0.05510614  0.10637343  0.43025247     1.06640
C193        C  0.91019441  0.10700822  0.56845144     1.06580
C194        C  0.05256101  0.10870598  0.58020078     1.09560
C195        C  0.92278602  0.10340745  0.42934934     1.07340
H196        H  0.98582443  0.14951426  0.58303244     0.32900
O197        O  0.98663455  0.16481581  0.55965743    -1.29010
H198        H  0.98747587  0.14827176  0.42533455     0.32580
O199        O  0.98716603  0.16367438  0.44868665    -1.30690
O200        O  0.91154584  0.26554220  0.58633621    -0.86460
O201        O  0.06791967  0.26521644  0.42697329    -0.87960
O202        O  0.01999264  0.21358698  0.62431622    -0.86540
O203        O  0.86387368  0.19396936  0.47327370    -0.86590
O204        O  0.95225012  0.21020479  0.38327225    -0.86300
O205        O  0.10973308  0.20124814  0.53605700    -0.86110
O206        O  0.02656462  0.31428575  0.55189159    -0.86480
O207        O  0.93827603  0.31075393  0.45518942    -0.85940
O208        O  0.06230207  0.26775500  0.58259621    -0.87000
O209        O  0.90368939  0.26064061  0.42720126    -0.86160
O210        O  0.95322732  0.20794062  0.62593895    -0.86560
O211        O  0.11017200  0.19981173  0.46953688    -0.86880
O212        O  0.01928021  0.21058319  0.38121853    -0.85930
O213        O  0.86353044  0.20144304  0.53926366    -0.86340
O214        O  0.94304827  0.31384086  0.55259884    -0.86640
O215        O  0.03539482  0.31329472  0.46008005    -0.87980
Zr216      Zr  0.93131266  0.20392571  0.55905579     2.83100
Zr217      Zr  0.04215308  0.20393514  0.44811154     2.83500
Zr218      Zr  0.04184717  0.20530651  0.55775023     2.84090
Zr219      Zr  0.93090043  0.20121904  0.44976421     2.83360
Zr220      Zr  0.98513561  0.28338107  0.50240944     2.84220
O221        O  0.98587515  0.24195692  0.44860729    -1.08550
O222        O  0.98628518  0.24350302  0.55674170    -1.08050
C223        C  0.92057053  0.30139608  0.58056668     1.06610
C224        C  0.06170888  0.30074333  0.43598422     1.09230
C225        C  0.98665063  0.21425483  0.64192430     1.06790
C226        C  0.84649740  0.19559075  0.50657768     1.07140
C227        C  0.98528451  0.21361303  0.36540030     1.06730
C228        C  0.12714992  0.19863886  0.50286102     1.06280
C229        C  0.05136881  0.30302529  0.57770086     1.06710
C230        C  0.91153118  0.29672042  0.43230779     1.06220
H231        H  0.06502790  0.26049391  0.50325246     0.32900
O232        O  0.04170261  0.24457002  0.50269405    -1.29650
H233        H  0.90595389  0.25807373  0.50409123     0.32920
O234        O  0.92945395  0.24281237  0.50370799    -1.31030
C235        C  0.68324970  0.15203233  0.51506326     0.03150
C236        C  0.66149599  0.14711336  0.48099107    -0.13000
C237        C  0.62429600  0.12986883  0.48222029     0.00650
C238        C  0.60807784  0.11955933  0.51793543    -0.11530
C239        C  0.62890821  0.12477604  0.55220080     0.03140
C240        C  0.66652040  0.14139063  0.55088906    -0.10950
H241        H  0.67462256  0.15412926  0.45318944     0.08740
H242        H  0.58054298  0.10377587  0.51882425     0.06260
H243        H  0.68346413  0.14385177  0.57718714     0.06110
C244        C  0.29123442  0.15987162  0.50871221     0.03150
C245        C  0.31148531  0.15633592  0.47334655    -0.13000
C246        C  0.34862387  0.13956339  0.47228823     0.00650
C247        C  0.36672597  0.12950697  0.50684852    -0.11530
C248        C  0.34524772  0.12775465  0.54142180     0.03140
C249        C  0.30776233  0.14430141  0.54260657    -0.10950
H250        H  0.29685296  0.16296081  0.44645197     0.08740
H251        H  0.39562954  0.11696905  0.50561870     0.06260
H252        H  0.29052216  0.14287361  0.56900352     0.06110
C253        C  0.97922176  0.26916342  0.20701167     0.03150
C254        C  0.01542706  0.27436934  0.18793336    -0.13000
C255        C  0.01738676  0.29336186  0.15211474     0.00650
C256        C  0.98340848  0.30617479  0.13477153    -0.11530
C257        C  0.94786638  0.30335503  0.15400418     0.03140
C258        C  0.94511546  0.28331389  0.18920792    -0.10950
H259        H  0.04232254  0.26665347  0.20223439     0.08740
H260        H  0.98531823  0.32316653  0.10836270     0.06260
H261        H  0.91694552  0.28066916  0.20340061     0.06110
C262        C  0.96506172  0.29604055  0.78484124     0.03150
C263        C  0.92895862  0.31590518  0.78685072    -0.13000
C264        C  0.92608366  0.34992634  0.80903199     0.00650
C265        C  0.96200717  0.36367264  0.82611918    -0.11530
C266        C  0.99456056  0.33997599  0.83225173     0.03140
C267        C  0.99583569  0.30583347  0.81030575    -0.10950
H268        H  0.90465596  0.30621660  0.76942443     0.08740
H269        H  0.96603941  0.39358025  0.83440401     0.06260
H270        H  0.02196388  0.28840455  0.81034532     0.06110
O271        O  0.02489067  0.81073012  0.45962884    -0.86470
O272        O  0.03187497  0.59194355  0.46405608    -0.86630
O273        O  0.10667113  0.71208362  0.47239116    -0.88300
O274        O  0.01662692  0.69694659  0.38591642    -0.87060
O275        O  0.94989646  0.69161832  0.38795633    -0.86650
O276        O  0.10645436  0.71665743  0.53872235    -0.88020
O277        O  0.06495116  0.64035442  0.43170004    -0.86500
O278        O  0.05742544  0.76386311  0.42528066    -0.86080
Zr279      Zr  0.03875411  0.70181020  0.45249310     2.84310
O280        O  0.98502296  0.65912306  0.45480866    -1.08060
O281        O  0.03792280  0.74289732  0.50636658    -1.08790
C282        C  0.04925654  0.79941422  0.43302193     1.06640
C283        C  0.05796343  0.60448127  0.43950984     1.06580
C284        C  0.12346393  0.71828694  0.50527595     1.09560
C285        C  0.98298635  0.69273936  0.36977628     1.07340
H286        H  0.06518115  0.64965167  0.50715456     0.32900
O287        O  0.04094841  0.66368192  0.50800633    -1.29010
H288        H  0.98068137  0.75322081  0.42893790     0.32580
O289        O  0.98165044  0.73818331  0.45245214    -1.30690
O290        O  0.95167378  0.59243036  0.56791541    -0.86460
O291        O  0.93370847  0.80802500  0.55239095    -0.87960
O292        O  0.07121512  0.64478632  0.58091120    -0.86540
O293        O  0.90252863  0.63317801  0.43811858    -0.86590
O294        O  0.90440742  0.75516456  0.42720652    -0.86300
O295        O  0.05735249  0.76685162  0.58806537    -0.86110
O296        O  0.95168134  0.69993341  0.63152313    -0.86480
O297        O  0.86166323  0.70625343  0.54315236    -0.85940
O298        O  0.01869142  0.69758722  0.62909622    -0.87000
O299        O  0.86113459  0.70534528  0.47662867    -0.86160
O300        O  0.03981768  0.59441289  0.55004429    -0.86560
O301        O  0.02322284  0.81189684  0.55384168    -0.86280
O302        O  0.93238251  0.80579489  0.46081638    -0.85930
O303        O  0.93684762  0.58779456  0.47173366    -0.86340
O304        O  0.91146560  0.63758455  0.59548166    -0.86640
O305        O  0.90490268  0.75997486  0.58893294    -0.87980
Zr306      Zr  0.98662263  0.62121331  0.51121166     2.83100
Zr307      Zr  0.98047324  0.77921753  0.50667802     2.83500
Zr308      Zr  0.04005727  0.70446385  0.56193675     2.84090
Zr309      Zr  0.92813048  0.69586694  0.45521783     2.83360
Zr310      Zr  0.92893546  0.69895233  0.56498919     2.84220
O311        O  0.92726120  0.73660457  0.50900721    -1.08550
O312        O  0.98619749  0.66276063  0.56452319    -1.08050
C313        C  0.92661411  0.60348214  0.59417950     1.06610
C314        C  0.91019765  0.79564020  0.57937833     1.09230
C315        C  0.06662368  0.60863611  0.57247000     1.06790
C316        C  0.90953086  0.59809635  0.44798855     1.07140
C317        C  0.90944040  0.79143740  0.43449764     1.06730
C318        C  0.04753849  0.80187461  0.58068979     1.06280
C319        C  0.98554916  0.69668367  0.64717832     1.06710
C320        C  0.84483651  0.71020319  0.51001737     1.06220
H321        H  0.98221726  0.75689200  0.58573520     0.32900
O322        O  0.98282382  0.74088433  0.56279197    -1.29650
H323        H  0.90557961  0.64105808  0.51335761     0.32920
O324        O  0.92853489  0.65743284  0.51148008    -1.31030
C325        C  0.69426006  0.78379583  0.51258258     0.03150
C326        C  0.67401525  0.79099208  0.47794751    -0.13000
C327        C  0.63903800  0.81195139  0.47888537     0.00650
C328        C  0.62484444  0.82545272  0.51422935    -0.11530
C329        C  0.64491105  0.81945612  0.54856560     0.03140
C330        C  0.67951399  0.79812048  0.54800607    -0.10950
H331        H  0.68612038  0.78161417  0.45044698     0.08740
H332        H  0.59870412  0.84297572  0.51484536     0.06260
H333        H  0.69560049  0.79391790  0.57456688     0.06110
C334        C  0.28476510  0.76956648  0.50887304     0.03150
C335        C  0.30456356  0.78088540  0.47480886    -0.13000
C336        C  0.34123729  0.79926465  0.47718470     0.00650
C337        C  0.35844684  0.80517551  0.51313966    -0.11530
C338        C  0.33820665  0.79631388  0.54713405     0.03140
C339        C  0.30142069  0.77810721  0.54512774    -0.10950
H340        H  0.29048705  0.77768952  0.44695375     0.08740
H341        H  0.38581280  0.82123539  0.51477403     0.06260
H342        H  0.28491590  0.77267910  0.57148734     0.06110
C343        C  0.98738499  0.66783106  0.20435933     0.03150
C344        C  0.02118361  0.64989486  0.18977011    -0.13000
C345        C  0.01946782  0.62929423  0.15492445     0.00650
C346        C  0.98395569  0.62506784  0.13608303    -0.11530
C347        C  0.94982248  0.64336008  0.14950499     0.03140
C348        C  0.95271250  0.66684011  0.18261370    -0.10950
H349        H  0.04775008  0.64960400  0.20663300     0.08740
H350        H  0.98310102  0.60507174  0.11189914     0.06260
H351        H  0.92755054  0.68215077  0.19348516     0.06110
C352        C  0.98366313  0.64794907  0.80684850     0.03150
C353        C  0.01518213  0.62570951  0.81971888    -0.13000
C354        C  0.01261622  0.60556080  0.85464928     0.00650
C355        C  0.97928106  0.60878757  0.87759663    -0.11530
C356        C  0.94832497  0.63245291  0.86657864     0.03140
C357        C  0.95035657  0.65162587  0.83065448    -0.10950
H358        H  0.04131383  0.62316281  0.80202069     0.08740
H359        H  0.97746509  0.59227528  0.90421884     0.06260
H360        H  0.92556750  0.66790884  0.82054872     0.06110
O361        O  0.66985907  0.54123328  0.08401269    -0.86470
O362        O  0.68730974  0.38364974  0.93240528    -0.86630
O363        O  0.62831475  0.50452378  0.95987577    -0.88300
O364        O  0.63300044  0.41707989  0.05160528    -0.87060
O365        O  0.68157765  0.39043062  0.08815143    -0.86650
O366        O  0.67380021  0.53730396  0.92357623    -0.88020
O367        O  0.63508044  0.41392604  0.96115573    -0.86500
O368        O  0.62583279  0.50493790  0.04890618    -0.86080
Zr369      Zr  0.66239224  0.46183517  0.00434386     2.84310
O370        O  0.70541512  0.40892061  0.00699897    -1.08060
O371        O  0.69641887  0.52066719  0.00315038    -1.08790
C372        C  0.63516377  0.53083269  0.07468486     1.06640
C373        C  0.65025551  0.38904172  0.93781491     1.06580
C374        C  0.63832874  0.52952854  0.93373840     1.09560
C375        C  0.64534660  0.39499268  0.07919139     1.07340
H376        H  0.68797313  0.45852383  0.92311448     0.32900
O377        O  0.70249408  0.46120431  0.94687904    -1.29010
H378        H  0.68304524  0.46587568  0.08336041     0.32580
O379        O  0.69962275  0.46685255  0.06064855    -1.30690
O380        O  0.81912339  0.43569206  0.95644616    -0.86460
O381        O  0.78909724  0.56300633  0.08415586    -0.87960
O382        O  0.76160467  0.48382822  0.88385391    -0.86540
O383        O  0.73815113  0.34703557  0.04386901    -0.86590
O384        O  0.74439551  0.43795685  0.12962366    -0.86300
O385        O  0.71901415  0.58601505  0.96938264    -0.86110
O386        O  0.84166040  0.53772367  0.97441030    -0.86480
O387        O  0.85145364  0.43471132  0.05996343    -0.85940
O388        O  0.79274912  0.55858698  0.93534390    -0.87000
O389        O  0.80494395  0.39335325  0.08516279    -0.86160
O390        O  0.75889750  0.41804363  0.88601974    -0.86560
O391        O  0.72242378  0.59043386  0.03590496    -0.86280
O392        O  0.74137385  0.50437159  0.12893868    -0.85930
O393        O  0.74862311  0.34591015  0.97844259    -0.86340
O394        O  0.87162639  0.46628013  0.97462482    -0.86640
O395        O  0.84022936  0.52478732  0.06742877    -0.87980
Zr396      Zr  0.74944149  0.41256580  0.95540726     2.83100
Zr397      Zr  0.73352200  0.52570643  0.06099602     2.83500
Zr398      Zr  0.73708415  0.51930810  0.94804015     2.84090
Zr399      Zr  0.74348794  0.41549384  0.06280008     2.83360
Zr400      Zr  0.81900472  0.48181788  0.01661246     2.84220
O401        O  0.77816160  0.47546053  0.06970817    -1.08550
O402        O  0.75575688  0.47049511  0.98957117    -1.08050
C403        C  0.85593695  0.44350833  0.95106183     1.06610
C404        C  0.82573197  0.55519419  0.08304799     1.09230
C405        C  0.76794791  0.44904251  0.86776144     1.06790
C406        C  0.74008664  0.32924847  0.01092051     1.07140
C407        C  0.74495172  0.47136761  0.14651433     1.06730
C408        C  0.71705114  0.60503986  0.00199610     1.06280
C409        C  0.82721319  0.56144502  0.94888989     1.06710
C410        C  0.84032417  0.40478213  0.08012825     1.06220
H411        H  0.78460447  0.55670954  0.00793737     0.32900
O412        O  0.77393629  0.53083273  0.00606670    -1.29650
H413        H  0.80747698  0.39628971  0.01169667     0.32920
O414        O  0.78959924  0.41777869  0.01045147    -1.31030
C415        C  0.87115861  0.44513353  0.76455545     0.03150
C416        C  0.87100050  0.48378155  0.74916639    -0.13000
C417        C  0.88082662  0.49089206  0.70954299     0.00650
C418        C  0.88246870  0.45975319  0.68388875    -0.11530
C419        C  0.88182413  0.42154902  0.69584382     0.03140
C420        C  0.88264545  0.41599813  0.73665655    -0.10950
H421        H  0.86589402  0.50822439  0.76806066     0.08740
H422        H  0.89050937  0.46630105  0.65448346     0.06260
H423        H  0.89507929  0.38960695  0.74640374     0.06110
C424        C  0.79890857  0.45477624  0.30511053     0.03150
C425        C  0.80776331  0.41642961  0.31610817    -0.13000
C426        C  0.81962642  0.40849706  0.35410584     0.00650
C427        C  0.82118922  0.43830568  0.38123092    -0.11530
C428        C  0.82147622  0.47675554  0.36908900     0.03140
C429        C  0.80721993  0.48501401  0.33165800    -0.10950
H430        H  0.80657706  0.39317218  0.29502297     0.08740
H431        H  0.82813933  0.43132765  0.41093089     0.06260
H432        H  0.80369635  0.51476448  0.32284554     0.06110
C433        C  0.66318363  0.17735323  0.00559358     0.03150
C434        C  0.64467237  0.16610033  0.04096659    -0.13000
C435        C  0.62143319  0.13225354  0.04304431     0.00650
C436        C  0.61597406  0.11037530  0.00964018    -0.11530
C437        C  0.63241124  0.12069821  0.97422669     0.03140
C438        C  0.65712998  0.15355936  0.97235933    -0.10950
H439        H  0.64756892  0.18392272  0.06662819     0.08740
H440        H  0.59763863  0.08466594  0.01113754     0.06260
H441        H  0.67181718  0.15972881  0.94528358     0.06110
C442        C  0.67653709  0.76828272  0.00902239     0.03150
C443        C  0.67093243  0.78854179  0.04428181    -0.13000
C444        C  0.65251589  0.82521112  0.04464719     0.00650
C445        C  0.64058417  0.84075084  0.00922956    -0.11530
C446        C  0.64748041  0.82196798  0.97414146     0.03140
C447        C  0.66518136  0.78556979  0.97411598    -0.10950
H448        H  0.67904081  0.77481357  0.07116628     0.08740
H449        H  0.62271126  0.86644416  0.00882090     0.06260
H450        H  0.66842119  0.76981812  0.94710901     0.06110
O451        O  0.40200224  0.03948432  0.82515478    -0.86470
O452        O  0.55913932  0.88330480  0.82181148    -0.86630
O453        O  0.42563125  0.91909051  0.87067556    -0.88300
O454        O  0.52627983  0.00225880  0.87379496    -0.87060
O455        O  0.56011984  0.03416664  0.82563845    -0.86650
O456        O  0.39178796  0.88850593  0.82201617    -0.88020
O457        O  0.52618541  0.91484966  0.87065433    -0.86500
O458        O  0.43888513  0.01036242  0.87212318    -0.86080
Zr459      Zr  0.47822790  0.95955868  0.84186728     2.84310
O460        O  0.53416023  0.95967717  0.80218639    -1.08060
O461        O  0.42241840  0.96066943  0.80223237    -1.08790
C462        C  0.41378524  0.03548651  0.86026779     1.06640
C463        C  0.55240222  0.89104459  0.85759844     1.06580
C464        C  0.39791011  0.89656993  0.85782326     1.09560
C465        C  0.55265947  0.02652099  0.86141369     1.07340
H466        H  0.47655981  0.88232769  0.81852639     0.32900
O467        O  0.47711514  0.90485794  0.80202487    -1.29010
H468        H  0.47981794  0.03708950  0.81857818     0.32580
O469        O  0.47878379  0.01441570  0.80225418    -1.30690
O470        O  0.55599318  0.88250930  0.70005070    -0.86460
O471        O  0.40425189  0.04305624  0.70107050    -0.87960
O472        O  0.44286641  0.83927309  0.76917126    -0.86540
O473        O  0.60146794  0.99250569  0.75460610    -0.86590
O474        O  0.51316122  0.08285215  0.77029092    -0.86300
O475        O  0.35544515  0.92713602  0.75358076    -0.86110
O476        O  0.43563776  0.91441400  0.65210860    -0.86480
O477        O  0.52423387  0.00984740  0.65438425    -0.85940
O478        O  0.40365727  0.87983835  0.69986497    -0.87000
O479        O  0.55629532  0.04239230  0.70315641    -0.86160
O480        O  0.50979697  0.83803757  0.76524451    -0.86560
O481        O  0.35520774  0.99364035  0.75651968    -0.86280
O482        O  0.44633856  0.08259983  0.76813495    -0.85930
O483        O  0.60008934  0.92588750  0.75510335    -0.86340
O484        O  0.52783180  0.91948788  0.65281004    -0.86640
O485        O  0.43595402  0.00910031  0.65347635    -0.87980
Zr486      Zr  0.53231414  0.90521205  0.76174462     2.83100
Zr487      Zr  0.42339088  0.01568792  0.76273242     2.83500
Zr488      Zr  0.42245788  0.90628995  0.76170593     2.84090
Zr489      Zr  0.53448133  0.01529113  0.76356801     2.83360
Zr490      Zr  0.47927111  0.96182777  0.68339372     2.84220
O491        O  0.47947220  0.01659916  0.72374747    -1.08550
O492        O  0.47774033  0.90551460  0.72164751    -1.08050
C493        C  0.55200438  0.89347355  0.66472958     1.06610
C494        C  0.41230560  0.03584308  0.66526550     1.09230
C495        C  0.47601235  0.82177221  0.76998840     1.06790
C496        C  0.61746044  0.95891368  0.75082342     1.07140
C497        C  0.47965779  0.09993404  0.77227597     1.06730
C498        C  0.33840329  0.96021257  0.75183884     1.06280
C499        C  0.41184218  0.88760387  0.66430247     1.06710
C500        C  0.54865787  0.03558890  0.66742051     1.06220
H501        H  0.40101115  0.96151160  0.70541664     0.32900
O502        O  0.42333084  0.96134733  0.72233682    -1.29650
H503        H  0.55615631  0.96140549  0.70667882     0.32920
O504        O  0.53349788  0.96093894  0.72340009    -1.31030
C505        C  0.48099146  0.66320484  0.82097983     0.03150
C506        C  0.44623322  0.64155950  0.82537953    -0.13000
C507        C  0.44603345  0.60697393  0.84659374     0.00650
C508        C  0.48151481  0.59312498  0.86038150    -0.11530
C509        C  0.51621509  0.61437908  0.85727473     0.03140
C510        C  0.51597158  0.64982689  0.83736642    -0.10950
H511        H  0.41930640  0.65266282  0.81370121     0.08740
H512        H  0.48194644  0.56628721  0.87646783     0.06260
H513        H  0.54203469  0.66782284  0.83627847     0.06110
C514        C  0.48623695  0.25959236  0.82925560     0.03150
C515        C  0.45159529  0.28108957  0.83436591    -0.13000
C516        C  0.45169742  0.31626845  0.85477082     0.00650
C517        C  0.48711599  0.33178421  0.86781620    -0.11530
C518        C  0.52196298  0.31137160  0.86298529     0.03140
C519        C  0.52126486  0.27490267  0.84472764    -0.10950
H520        H  0.42398801  0.27009931  0.82365910     0.08740
H521        H  0.48724993  0.35874740  0.88399109     0.06260
H522        H  0.54789584  0.25832303  0.84362661     0.06110
C523        C  0.18008169  0.95789605  0.69548571     0.03150
C524        C  0.16272758  0.99427964  0.69127014    -0.13000
C525        C  0.12495520  0.99687542  0.67648426     0.00650
C526        C  0.10360950  0.96320169  0.66885756    -0.11530
C527        C  0.12246413  0.92757278  0.66613689     0.03140
C528        C  0.16063409  0.92463951  0.68113830    -0.10950
H529        H  0.17954711  0.02045005  0.69677525     0.08740
H530        H  0.07376115  0.96588766  0.65909305     0.06260
H531        H  0.17578425  0.89725364  0.68027236     0.06110
C532        C  0.76716388  0.95440662  0.67454433     0.03150
C533        C  0.78014534  0.98945204  0.65813450    -0.13000
C534        C  0.81236889  0.98968525  0.63318651     0.00650
C535        C  0.83113478  0.95530777  0.62428602    -0.11530
C536        C  0.82150967  0.92087131  0.64344994     0.03140
C537        C  0.78851790  0.92023191  0.66815906    -0.10950
H538        H  0.76480685  0.01614822  0.66412468     0.08740
H539        H  0.85465857  0.95598888  0.60312530     0.06260
H540        H  0.77905273  0.89347930  0.68176175     0.06110
C541        C  0.47529993  0.78061873  0.78114192    -0.00140
C542        C  0.49291669  0.75260029  0.75741827    -0.12010
C543        C  0.49521036  0.71391278  0.76971545     0.02100
C544        C  0.47882685  0.70298168  0.80568923    -0.00220
C545        C  0.46120676  0.73096889  0.82916897    -0.11950
C546        C  0.46043818  0.76968031  0.81780438     0.01990
H547        H  0.50555231  0.76110189  0.72979426     0.14970
H548        H  0.45031798  0.72289866  0.85765452     0.14970
C549        C  0.45161694  0.79821864  0.84713257     0.36620
C550        C  0.51482657  0.68606159  0.74542242     0.36520
N551        N  0.44663376  0.82069863  0.87151398    -0.43720
N552        N  0.53073024  0.66369641  0.72609389    -0.43720
C553        C  0.48452144  0.21972895  0.81141582    -0.00140
C554        C  0.45135481  0.19639316  0.81849916    -0.12010
C555        C  0.44781903  0.15896181  0.80330219     0.02100
C556        C  0.47935017  0.14208647  0.78270879    -0.00220
C557        C  0.51239185  0.16542126  0.77494754    -0.11950
C558        C  0.51469241  0.20410212  0.78787058     0.01990
H559        H  0.42778397  0.20708811  0.83654574     0.14970
H560        H  0.53641028  0.15357063  0.75821986     0.14970
C561        C  0.54761185  0.22723324  0.77501453     0.36620
C562        C  0.41101360  0.13918519  0.80953392     0.36520
N563        N  0.57401373  0.24567792  0.76452239    -0.43720
N564        N  0.38086635  0.12435949  0.81379052    -0.43720
C565        C  0.29746307  0.95944984  0.73900209    -0.00140
C566        C  0.29067364  0.95413925  0.69932015    -0.12010
C567        C  0.25265253  0.95235910  0.68481025     0.02100
C568        C  0.22053363  0.95603234  0.71022796    -0.00220
C569        C  0.22727455  0.96101216  0.75007235    -0.11950
C570        C  0.26548986  0.96225994  0.76466866     0.01990
H571        H  0.31528985  0.95162637  0.67954190     0.14970
H572        H  0.20263771  0.96385421  0.76974419     0.14970
C573        C  0.27120188  0.96517762  0.80592756     0.36620
C574        C  0.24739830  0.94795004  0.64362391     0.36520
N575        N  0.27565236  0.96699517  0.83907940    -0.43720
N576        N  0.24343037  0.94450849  0.61055456    -0.43720
C577        C  0.65667547  0.95784980  0.73350918    -0.00140
C578        C  0.65852877  0.95779189  0.69296645    -0.12010
C579        C  0.69426585  0.95558342  0.67356971     0.02100
C580        C  0.72912647  0.95345261  0.69489658    -0.00220
C581        C  0.72739473  0.95282566  0.73560128    -0.11950
C582        C  0.69124204  0.95487417  0.75508262     0.01990
H583        H  0.63177205  0.95922690  0.67636561     0.14970
H584        H  0.75420529  0.95127256  0.75203118     0.14970
C585        C  0.69013357  0.95409032  0.79685080     0.36620
C586        C  0.69443937  0.95515557  0.63170833     0.36520
N587        N  0.68912672  0.95344431  0.83035663    -0.43720
N588        N  0.69454350  0.95469265  0.59819100    -0.43720
C589        C  0.57838530  0.87203378  0.88533622    -0.00140
C590        C  0.60789534  0.89423371  0.90262221    -0.12010
C591        C  0.63353533  0.87757777  0.92904687     0.02100
C592        C  0.62916728  0.83811303  0.93908274    -0.00220
C593        C  0.60228168  0.81516705  0.91881077    -0.11950
C594        C  0.57797399  0.83159290  0.89110862     0.01990
H595        H  0.61158356  0.92437010  0.89455789     0.14970
H596        H  0.59965369  0.78448536  0.92516754     0.14970
C597        C  0.55522534  0.80573279  0.86750981     0.36620
C598        C  0.66493058  0.90107493  0.94432762     0.36520
N599        N  0.53923797  0.78339052  0.84823941    -0.43720
N600        N  0.69047239  0.91993706  0.95579147    -0.43720
C601        C  0.62032485  0.09670967  0.94021016    -0.00140
C602        C  0.61813982  0.05611517  0.94519473    -0.12010
C603        C  0.59379486  0.03301965  0.92208591     0.02100
C604        C  0.57589563  0.04925112  0.88946260    -0.00220
C605        C  0.58097376  0.08895109  0.88221819    -0.11950
C606        C  0.60100305  0.11293479  0.90816751     0.01990
H607        H  0.63194946  0.04303727  0.97009275     0.14970
H608        H  0.56634979  0.10190456  0.85768930     0.14970
C609        C  0.59565889  0.15391698  0.90370268     0.36620
C610        C  0.58453103  0.99435407  0.93510664     0.36520
N611        N  0.58886788  0.18624344  0.89882607    -0.43720
N612        N  0.57596862  0.96423116  0.94726392    -0.43720
C613        C  0.87743620  0.42829906  0.91749711    -0.00140
C614        C  0.90382276  0.46140132  0.88873048    -0.12010
C615        C  0.89955656  0.46765334  0.83819423     0.02100
C616        C  0.86772251  0.43762169  0.81038197    -0.00220
C617        C  0.83427554  0.38695320  0.85777104    -0.11950
C618        C  0.84802532  0.39193509  0.90313540     0.01990
H619        H  0.91937497  0.48397517  0.90417307     0.14970
H620        H  0.81465764  0.36221900  0.85245295     0.14970
C621        C  0.83675553  0.36147897  0.92958263     0.36620
C622        C  0.91907353  0.50020795  0.82045573     0.36520
N623        N  0.82824156  0.33634828  0.95014558    -0.43720
N624        N  0.93414544  0.52683370  0.80627409    -0.43720
C625        C  0.75341543  0.47126005  0.18885497    -0.00140
C626        C  0.78227402  0.49657937  0.20320823    -0.12010
C627        C  0.79731700  0.49231214  0.24078662     0.02100
C628        C  0.78275616  0.46262887  0.26550294    -0.00220
C629        C  0.75238182  0.43866753  0.25163900    -0.11950
C630        C  0.73789310  0.44254488  0.21388270     0.01990
H631        H  0.79497671  0.51828597  0.18410790     0.14970
H632        H  0.74021886  0.41629546  0.27027750     0.14970
C633        C  0.70707849  0.41655664  0.20147151     0.36620
C634        C  0.82962684  0.51704912  0.25178391     0.36520
N635        N  0.68239534  0.39575747  0.19150025    -0.43720
N636        N  0.85542563  0.53705964  0.26051807    -0.43720
C637        C  0.55854120  0.32805605  0.87910704    -0.00140
C638        C  0.57126879  0.36446792  0.86579930    -0.12010
C639        C  0.60241969  0.38391906  0.88359039     0.02100
C640        C  0.62225507  0.36639740  0.91454133    -0.00220
C641        C  0.61039866  0.32953859  0.92722926    -0.11950
C642        C  0.57830168  0.31060203  0.91024572     0.01990
H643        H  0.55570836  0.37844067  0.84248124     0.14970
H644        H  0.62454544  0.31673062  0.95207175     0.14970
C645        C  0.56340128  0.27570745  0.92814790     0.36620
C646        C  0.61219133  0.42275490  0.87104666     0.36520
N647        N  0.55088601  0.24827012  0.94309604    -0.43720
N648        N  0.61982703  0.45397849  0.86125123    -0.43720
C649        C  0.68787932  0.21409519  0.00425014    -0.00140
C650        C  0.71009420  0.22488530  0.03707051    -0.12010
C651        C  0.72976925  0.26093480  0.03939704     0.02100
C652        C  0.72731019  0.28768425  0.00864335    -0.00220
C653        C  0.70785476  0.27585882  0.97496628    -0.11950
C654        C  0.68871257  0.23996518  0.97222912     0.01990
H655        H  0.71214622  0.20509216  0.06128115     0.14970
H656        H  0.70603006  0.29566379  0.95067439     0.14970
C657        C  0.67026943  0.23224097  0.93568294     0.36620
C658        C  0.75310588  0.26909003  0.07312664     0.36520
N659        N  0.65766581  0.22795736  0.90498235    -0.43720
N660        N  0.77176026  0.27533188  0.10030950    -0.43720
C661        C  0.60718263  0.55224330  0.91467674    -0.00140
C662        C  0.61545523  0.57111583  0.87926474    -0.12010
C663        C  0.58739051  0.59386470  0.86081016     0.02100
C664        C  0.55055870  0.59903024  0.87837438    -0.00220
C665        C  0.54370170  0.58291166  0.91524788    -0.11950
C666        C  0.57039570  0.55826266  0.93246971     0.01990
H667        H  0.64363327  0.56732284  0.86532109     0.14970
H668        H  0.51604639  0.58790597  0.92989279     0.14970
C669        C  0.55913665  0.54084439  0.96900641     0.36620
C670        C  0.59666451  0.61021415  0.82339991     0.36520
N671        N  0.54981157  0.52711877  0.99824003    -0.43720
N672        N  0.60419596  0.62354812  0.79351226    -0.43720
C673        C  0.68813488  0.72675460  0.00824873    -0.00140
C674        C  0.65981327  0.69909349  0.99786836    -0.12010
C675        C  0.66893350  0.65969943  0.99500548     0.02100
C676        C  0.70735807  0.64701779  0.00140183    -0.00220
C677        C  0.73577692  0.67464786  0.01229602    -0.11950
C678        C  0.72645735  0.71424398  0.01576143     0.01990
H679        H  0.63009002  0.70831835  0.99270617     0.14970
H680        H  0.76520816  0.66521174  0.01844788     0.14970
C681        C  0.75662835  0.74153378  0.02657799     0.36620
C682        C  0.63743548  0.63274418  0.98874401     0.36520
N683        N  0.78080046  0.76346160  0.03528569    -0.43720
N684        N  0.61126070  0.61180361  0.98503330    -0.43720
C685        C  0.91204980  0.63086116  0.89021199    -0.00140
C686        C  0.87678549  0.62268876  0.87161689    -0.12010
C687        C  0.84593588  0.60529100  0.89188002     0.02100
C688        C  0.85193120  0.59248468  0.93069874    -0.00220
C689        C  0.88356680  0.60831721  0.95080218    -0.11950
C690        C  0.91329240  0.62825751  0.93103617     0.01990
H691        H  0.87434339  0.62648431  0.84056413     0.14970
H692        H  0.88530398  0.60468861  0.98161488     0.14970
C693        C  0.94559628  0.64414162  0.95277972     0.36620
C694        C  0.81064727  0.59741732  0.87024514     0.36520
N695        N  0.97146382  0.65701753  0.97011953    -0.43720
N696        N  0.78284425  0.59048786  0.85253903    -0.43720
C697        C  0.91174050  0.63255086  0.13089079    -0.00140
C698        C  0.91366944  0.62104317  0.09188626    -0.12010
C699        C  0.88831287  0.59289393  0.07779392     0.02100
C700        C  0.85390680  0.58360161  0.09862863    -0.00220
C701        C  0.84728874  0.60133566  0.13455694    -0.11950
C702        C  0.87672239  0.62398453  0.15189269     0.01990
H703        H  0.93867812  0.62920081  0.07414501     0.14970
H704        H  0.82078564  0.59446835  0.15063162     0.14970
C705        C  0.87047984  0.63517113  0.19169589     0.36620
C706        C  0.90192668  0.57008294  0.04536088     0.36520
N707        N  0.86453068  0.64396454  0.22354792    -0.43720
N708        N  0.91412969  0.55074728  0.02074810    -0.43720
C709        C  0.35258473  0.81497938  0.58279103    -0.00140
C710        C  0.38900977  0.80395629  0.59731038    -0.12010
C711        C  0.40883221  0.82750460  0.62388653     0.02100
C712        C  0.39237798  0.86290219  0.63566035    -0.00220
C713        C  0.35533951  0.87324612  0.62245108    -0.11950
C714        C  0.33541851  0.84963712  0.59602274     0.01990
H715        H  0.40268292  0.77781983  0.58651535     0.14970
H716        H  0.34235253  0.90011419  0.63222311     0.14970
C717        C  0.29876673  0.86277032  0.58056931     0.36620
C718        C  0.44632417  0.81530986  0.63816646     0.36520
N719        N  0.26945028  0.87274763  0.56764496    -0.43720
N720        N  0.47632694  0.80565286  0.64976929    -0.43720
C721        C  0.62935069  0.83879621  0.58346842    -0.00140
C722        C  0.62202819  0.87865227  0.58074082    -0.12010
C723        C  0.59636573  0.89683257  0.60626821     0.02100
C724        C  0.57859205  0.87530354  0.63636864    -0.00220
C725        C  0.58866869  0.83614026  0.64117058    -0.11950
C726        C  0.61356482  0.81768037  0.61475454     0.01990
H727        H  0.63436696  0.89504822  0.55673395     0.14970
H728        H  0.57588802  0.81951857  0.66476505     0.14970
C729        C  0.62052969  0.77674503  0.61895647     0.36620
C730        C  0.58845312  0.93734734  0.60019311     0.36520
N731        N  0.62621627  0.74394420  0.62237319    -0.43720
N732        N  0.58202996  0.96968937  0.59465574    -0.43720
C733        C  0.84172778  0.50691164  0.39323958    -0.00140
C734        C  0.82802569  0.54509066  0.39292337    -0.12010
C735        C  0.84884820  0.57524350  0.41085141     0.02100
C736        C  0.88432535  0.56744712  0.43047538    -0.00220
C737        C  0.89682505  0.52916733  0.43258806    -0.11950
C738        C  0.87659548  0.49921389  0.41425066     0.01990
H739        H  0.80109832  0.55168838  0.37809336     0.14970
H740        H  0.92366776  0.52251282  0.44762769     0.14970
C741        C  0.89436325  0.46161353  0.41726767     0.36620
C742        C  0.83304848  0.61375548  0.40759573     0.36520
N743        N  0.90940543  0.43208847  0.42158186    -0.43720
N744        N  0.82048503  0.64458428  0.40439801    -0.43720
C745        C  0.98246087  0.68840199  0.32709045    -0.00140
C746        C  0.01001761  0.70885046  0.30432990    -0.12010
C747        C  0.01141558  0.70406692  0.26395407     0.02100
C748        C  0.98507336  0.67827680  0.24589051    -0.00220
C749        C  0.95739010  0.65834294  0.26857910    -0.11950
C750        C  0.95576139  0.66312554  0.30861704     0.01990
H751        H  0.03046499  0.72862530  0.31810458     0.14970
H752        H  0.93792726  0.63744700  0.25506100     0.14970
C753        C  0.92807520  0.63948361  0.32989759     0.36620
C754        C  0.03966439  0.72610154  0.24169608     0.36520
N755        N  0.90581152  0.62015187  0.34640599    -0.43720
N756        N  0.06225312  0.74383238  0.22383381    -0.43720
C757        C  0.88793435  0.82484413  0.60143109    -0.00140
C758        C  0.90687736  0.85950281  0.61129546    -0.12010
C759        C  0.88663108  0.88930747  0.62959100     0.02100
C760        C  0.84561517  0.88613169  0.63515772    -0.00220
C761        C  0.82734287  0.85025180  0.62829905    -0.11950
C762        C  0.84850094  0.81918011  0.61297829     0.01990
H763        H  0.93780814  0.86314883  0.60507672     0.14970
H764        H  0.79627936  0.84672406  0.63364114     0.14970
C765        C  0.82880901  0.78220427  0.60947925     0.36620
C766        C  0.90886459  0.92268077  0.64250325     0.36520
N767        N  0.81292855  0.75251414  0.60773966    -0.43720
N768        N  0.92667273  0.94943159  0.65270204    -0.43720
C769        C  0.80554970  0.72710807  0.51033678    -0.00140
C770        C  0.80312684  0.76665161  0.51918829    -0.12010
C771        C  0.76719017  0.78538637  0.52031957     0.02100
C772        C  0.73274565  0.76463359  0.51135850    -0.00220
C773        C  0.73521959  0.72528167  0.50103848    -0.11950
C774        C  0.77140466  0.70633628  0.50064042     0.01990
H775        H  0.82959751  0.78298988  0.52542854     0.14970
H776        H  0.70882043  0.70927634  0.49391460     0.14970
C777        C  0.77274134  0.66567149  0.49113735     0.36620
C778        C  0.76653701  0.82606093  0.53022638     0.36520
N779        N  0.77365286  0.63298884  0.48371668    -0.43720
N780        N  0.76610819  0.85859964  0.53833152    -0.43720
C781        C  0.06605578  0.83305291  0.60438460    -0.00140
C782        C  0.06256746  0.87114182  0.59151811    -0.12010
C783        C  0.08170947  0.90170693  0.60981556     0.02100
C784        C  0.10326663  0.89525224  0.64427711    -0.00220
C785        C  0.10595016  0.85715473  0.65806132    -0.11950
C786        C  0.08798538  0.82613250  0.63848401     0.01990
H787        H  0.04532276  0.87727935  0.56614513     0.14970
H788        H  0.12181835  0.85155684  0.68451002     0.14970
C789        C  0.09199112  0.78796247  0.65496216     0.36620
C790        C  0.07912595  0.93865110  0.59057177     0.36520
N791        N  0.09528871  0.75742986  0.66826763    -0.43720
N792        N  0.07531385  0.96727691  0.57372958    -0.43720
C793        C  0.16483751  0.73104753  0.50485067    -0.00140
C794        C  0.19474100  0.70491459  0.49578047    -0.12010
C795        C  0.23416182  0.71683481  0.49662852     0.02100
C796        C  0.24388664  0.75532125  0.50689364    -0.00220
C797        C  0.21397332  0.78133542  0.51563542    -0.11950
C798        C  0.17480623  0.76960347  0.51453686     0.01990
H799        H  0.18737775  0.67513006  0.48880219     0.14970
H800        H  0.22130705  0.81105339  0.52313354     0.14970
C801        C  0.14528900  0.79805919  0.52256927     0.36620
C802        C  0.26416943  0.68903552  0.48785636     0.36520
N803        N  0.12192006  0.82123679  0.52878287    -0.43720
N804        N  0.28828674  0.66676553  0.48090630    -0.43720
C805        C  0.89603809  0.52810425  0.69209070    -0.00140
C806        C  0.93234008  0.52514973  0.67266676    -0.12010
C807        C  0.94036679  0.54571662  0.63850597     0.02100
C808        C  0.91578296  0.57628864  0.62693709    -0.00220
C809        C  0.88187760  0.58300487  0.64975296    -0.11950
C810        C  0.87117531  0.55831813  0.68089267     0.01990
H811        H  0.95162249  0.50163825  0.68040908     0.14970
H812        H  0.86249835  0.60636138  0.64204891     0.14970
C813        C  0.83380515  0.56320679  0.69965307     0.36620
C814        C  0.97252808  0.53234067  0.61482433     0.36520
N815        N  0.80386271  0.56711548  0.71483346    -0.43720
N816        N  0.99815537  0.52114681  0.59598185    -0.43720
C817        C  0.98415267  0.66265261  0.76651660    -0.00140
C818        C  0.99459379  0.63657819  0.73715260    -0.12010
C819        C  0.99602234  0.64811428  0.69865037     0.02100
C820        C  0.98623646  0.68614470  0.68837249    -0.00220
C821        C  0.97516089  0.71246114  0.71733055    -0.11950
C822        C  0.97453094  0.70110761  0.75645229     0.01990
H823        H  0.00131714  0.60678160  0.74427804     0.14970
H824        H  0.96747628  0.74179281  0.70944914     0.14970
C825        C  0.96531088  0.72958379  0.78566037     0.36620
C826        C  0.00650996  0.61992952  0.66983791     0.36520
N827        N  0.95800339  0.75236134  0.80918648    -0.43720
N828        N  0.01497977  0.59754599  0.64648669    -0.43720
C829        C  0.88817062  0.37240857  0.81692291    -0.00140
C830        C  0.89545592  0.40259178  0.85452586    -0.12010
C831        C  0.83855730  0.44966597  0.86512337     0.02100
C832        C  0.80115019  0.44245228  0.83643014    -0.00220
C833        C  0.80454823  0.40720967  0.80027008    -0.11950
C834        C  0.84342875  0.37440481  0.79162591     0.01990
H835        H  0.92119683  0.39919636  0.87207157     0.14970
H836        H  0.77785447  0.40115396  0.78473118     0.14970
C837        C  0.83507370  0.34414581  0.76404129     0.36620
C838        C  0.83709852  0.49013140  0.87840281     0.36520
N839        N  0.82775608  0.31991461  0.74197176    -0.43720
N840        N  0.84055140  0.52283161  0.88252620    -0.43720
C841        C  0.86938555  0.37944963  0.09784523    -0.00140
C842        C  0.89406955  0.39392435  0.12664536    -0.12010
C843        C  0.91800926  0.36878103  0.14737163     0.02100
C844        C  0.91674086  0.32848664  0.13974868    -0.00220
C845        C  0.89220973  0.31414325  0.11087993    -0.11950
C846        C  0.86879713  0.33923310  0.08978849     0.01990
H847        H  0.89435696  0.42467381  0.13316628     0.14970
H848        H  0.89278484  0.28356779  0.10357246     0.14970
C849        C  0.84596807  0.32318682  0.05855079     0.36620
C850        C  0.94495694  0.38504791  0.17513586     0.36520
N851        N  0.82819944  0.30992554  0.03335116    -0.43720
N852        N  0.96674526  0.39813404  0.19715933    -0.43720
C853        C  0.39294312  0.05969878  0.63502705    -0.00140
C854        C  0.39188664  0.04507130  0.59714952    -0.12010
C855        C  0.37550219  0.06602194  0.56695135     0.02100
C856        C  0.36020378  0.10350989  0.57377874    -0.00220
C857        C  0.35989082  0.11783168  0.61184404    -0.11950
C858        C  0.37583196  0.09637995  0.64241971     0.01990
H859        H  0.40364870  0.01664635  0.59090419     0.14970
H860        H  0.34787993  0.14624134  0.61759978     0.14970
C861        C  0.37474839  0.11337504  0.68066144     0.36620
C862        C  0.37430122  0.04731699  0.52949458     0.36520
N863        N  0.37357916  0.12701935  0.71129392    -0.43720
N864        N  0.37414345  0.03174522  0.49979100    -0.43720
C865        C  0.56984185  0.05996490  0.63962596    -0.00140
C866        C  0.60863207  0.05100692  0.63040754    -0.12010
C867        C  0.62991294  0.07374724  0.60408476     0.02100
C868        C  0.61241091  0.10659126  0.58742964    -0.00220
C869        C  0.57441499  0.11687016  0.59888493    -0.11950
C870        C  0.55308920  0.09384542  0.62485914     0.01990
H871        H  0.62189602  0.02557671  0.64295584     0.14970
H872        H  0.56076903  0.14194618  0.58602147     0.14970
C873        C  0.51407876  0.10530375  0.63587025     0.36620
C874        C  0.66844884  0.06122481  0.59265082     0.36520
N875        N  0.48290171  0.11448431  0.64493174    -0.43720
N876        N  0.69931844  0.05120305  0.58345982    -0.43720
C877        C  0.84103102  0.37318995  0.36466040    -0.00140
C878        C  0.82322415  0.34679106  0.39009537    -0.12010
C879        C  0.84580994  0.32142962  0.41204752     0.02100
C880        C  0.88707839  0.32327310  0.40968315    -0.00220
C881        C  0.90476188  0.34804185  0.38257936    -0.11950
C882        C  0.88208295  0.37266214  0.35985589     0.01990
H883        H  0.79185025  0.34763915  0.39451937     0.14970
H884        H  0.93631731  0.34855065  0.37955319     0.14970
C885        C  0.90176550  0.40004011  0.33463949     0.36620
C886        C  0.82596796  0.29508036  0.43817286     0.36520
N887        N  0.91738370  0.42227467  0.31468570    -0.43720
N888        N  0.80988320  0.27389396  0.45888275    -0.43720
C889        C  0.97844365  0.25326972  0.24725981    -0.00140
C890        C  0.00196609  0.22123814  0.25627255    -0.12010
C891        C  0.00509054  0.20767064  0.29445065     0.02100
C892        C  0.98321683  0.22526793  0.32426198    -0.00220
C893        C  0.95917486  0.25663185  0.31525396    -0.11950
C894        C  0.95733346  0.27132128  0.27763220     0.01990
H895        H  0.01855702  0.20714987  0.23348615     0.14970
H896        H  0.94304320  0.27099565  0.33824971     0.14970
C897        C  0.93583638  0.30663931  0.27201746     0.36620
C898        C  0.03084207  0.17579985  0.30216672     0.36520
N899        N  0.91858551  0.33490902  0.26745759    -0.43720
N900        N  0.05184475  0.15046176  0.30809639    -0.43720
C901        C  0.07146142  0.08125176  0.60630967    -0.00140
C902        C  0.09932129  0.05631328  0.59092049    -0.12010
C903        C  0.12144688  0.03300507  0.61496351     0.02100
C904        C  0.11277150  0.03125700  0.65493933    -0.00220
C905        C  0.08462346  0.05598072  0.67068201    -0.11950
C906        C  0.06482035  0.08191562  0.64674717     0.01990
H907        H  0.10358876  0.05457200  0.56004834     0.14970
H908        H  0.07724154  0.05406943  0.70121534     0.14970
C909        C  0.03632359  0.10732727  0.66391410     0.36620
C910        C  0.15093658  0.00885584  0.59736548     0.36520
N911        N  0.01352299  0.12769333  0.67778806    -0.43720
N912        N  0.17421062  0.98951369  0.58278161    -0.43720
C913        C  0.16936941  0.18974700  0.50350931    -0.00140
C914        C  0.19780905  0.21906036  0.49963765    -0.12010
C915        C  0.23785239  0.21015033  0.50154188     0.02100
C916        C  0.24963047  0.17159232  0.50828151    -0.00220
C917        C  0.22106746  0.14253460  0.51192050    -0.11950
C918        C  0.18142736  0.15129644  0.50909085     0.01990
H919        H  0.18878536  0.24872690  0.49512745     0.14970
H920        H  0.22984898  0.11269869  0.51593041     0.14970
C921        C  0.15336847  0.12011905  0.51019878     0.36620
C922        C  0.26628995  0.24089933  0.49680018     0.36520
N923        N  0.13037124  0.09548130  0.51016926    -0.43720
N924        N  0.28906656  0.26559051  0.49292766    -0.43720
C925        C  0.88273898  0.07880025  0.58505567    -0.00140
C926        C  0.88297696  0.07273076  0.62513562    -0.12010
C927        C  0.85733820  0.04593647  0.64208616     0.02100
C928        C  0.83048275  0.02551880  0.61875753    -0.00220
C929        C  0.82877812  0.03321454  0.57897928    -0.11950
C930        C  0.85461120  0.05983530  0.56198709     0.01990
H931        H  0.90415322  0.08793698  0.64294613     0.14970
H932        H  0.80850506  0.01702931  0.56098307     0.14970
C933        C  0.85139675  0.06749184  0.52106291     0.36620
C934        C  0.86111133  0.03758849  0.68285731     0.36520
N935        N  0.84833889  0.07365472  0.48831407    -0.43720
N936        N  0.86419423  0.03064292  0.71546167    -0.43720
C937        C  0.80408194  0.18743398  0.50756549    -0.00140
C938        C  0.79021442  0.15628405  0.48538826    -0.12010
C939        C  0.75146090  0.14377741  0.48832568     0.02100
C940        C  0.72493349  0.16392704  0.51240736    -0.00220
C941        C  0.73859251  0.19555107  0.53430313    -0.11950
C942        C  0.77795127  0.20721690  0.53234066     0.01990
H943        H  0.81027678  0.14037010  0.46700227     0.14970
H944        H  0.71847836  0.21111556  0.55292732     0.14970
C945        C  0.79060539  0.23998370  0.55527037     0.36620
C946        C  0.74074098  0.10839806  0.46851992     0.36520
N947        N  0.80086776  0.26624152  0.57358556    -0.43720
N948        N  0.73298869  0.07971725  0.45284332    -0.43720
C949        C  0.90542759  0.33009838  0.60959400    -0.00140
C950        C  0.89407039  0.36686767  0.59761343    -0.12010
C951        C  0.88141389  0.39483902  0.62449600     0.02100
C952        C  0.88674213  0.38926821  0.66543803    -0.00220
C953        C  0.89578682  0.35119264  0.67680140    -0.11950
C954        C  0.90191494  0.32152262  0.64956184     0.01990
H955        H  0.89268692  0.37294602  0.56683029     0.14970
H956        H  0.89652964  0.34326358  0.70691744     0.14970
C957        C  0.89927143  0.28227546  0.66330362     0.36620
C958        C  0.85898598  0.42606118  0.60831201     0.36520
N959        N  0.89403776  0.25098456  0.67410310    -0.43720
N960        N  0.84105257  0.45086596  0.59490517    -0.43720
C961        C  0.97415939  0.27132243  0.75096496    -0.00140
C962        C  0.95505236  0.23560476  0.74548851    -0.12010
C963        C  0.96116806  0.21406700  0.71137565     0.02100
C964        C  0.98647330  0.22866546  0.68223814    -0.00220
C965        C  0.00733606  0.26309739  0.68909047    -0.11950
C966        C  0.00110105  0.28463559  0.72268275     0.01990
H967        H  0.93457210  0.22517093  0.76725551     0.14970
H968        H  0.02639493  0.27491723  0.66671531     0.14970
C969        C  0.02053175  0.32187370  0.72592650     0.36620
C970        C  0.93975095  0.17825935  0.70605253     0.36520
N971        N  0.03601208  0.35171178  0.72842757    -0.43720
N972        N  0.92248795  0.14960737  0.70175611    -0.43720
C973        C  0.37083367  0.87844609  0.88628365    -0.00140
C974        C  0.35782419  0.90057267  0.91762318    -0.12010
C975        C  0.33390918  0.88415966  0.94627258     0.02100
C976        C  0.32717094  0.84343812  0.94703915    -0.00220
C977        C  0.33724249  0.82220177  0.91366027    -0.11950
C978        C  0.35650998  0.83999304  0.88242440     0.01990
H979        H  0.36513401  0.93120678  0.91893676     0.14970
H980        H  0.33111901  0.79147222  0.91178200     0.14970
C981        C  0.36085890  0.81792039  0.84709720     0.36620
C982        C  0.31479317  0.91048258  0.97257976     0.36520
N983        N  0.36351248  0.80026095  0.81868140    -0.43720
N984        N  0.29936753  0.93257942  0.99254121    -0.43720
C985        C  0.39952238  0.06407049  0.88853849    -0.00140
C986        C  0.42676695  0.08158774  0.91339041    -0.12010
C987        C  0.41502263  0.10923286  0.94053023     0.02100
C988        C  0.37519834  0.11895264  0.94365027    -0.00220
C989        C  0.34861308  0.10390760  0.91671882    -0.11950
C990        C  0.36041191  0.07668291  0.88919821     0.01990
H991        H  0.45729748  0.07356630  0.91166957     0.14970
H992        H  0.31790939  0.11110553  0.91912967     0.14970
C993        C  0.33140111  0.06119217  0.86313661     0.36620
C994        C  0.44394863  0.12614225  0.96590760     0.36520
N995        N  0.30804314  0.04943889  0.84199046    -0.43720
N996        N  0.46718679  0.13965742  0.98617421    -0.43720
C997        C  0.12757396  0.51654172  0.38428628    -0.00140
C998        C  0.14399730  0.55310123  0.39138530    -0.12010
C999        C  0.12173096  0.58257360  0.40831989     0.02100
C1000       C  0.08213704  0.57543982  0.41886816    -0.00220
C1001       C  0.06545999  0.53924034  0.41038479    -0.11950
C1002       C  0.08743787  0.51013029  0.39285175     0.01990
H1003       H  0.17455703  0.55834645  0.38454579     0.14970
H1004       H  0.03498036  0.53365981  0.41736290     0.14970
C1005       C  0.06769084  0.47412940  0.38345050     0.36620
C1006       C  0.14091989  0.61925872  0.41554983     0.36520
N1007       N  0.05197012  0.44522287  0.37614715    -0.43720
N1008       N  0.15645649  0.64868355  0.42083309    -0.43720
C1009       C  0.08879753  0.32854185  0.41808963    -0.00140
C1010       C  0.08754692  0.33396101  0.37794800    -0.12010
C1011       C  0.11399143  0.35910827  0.35958114     0.02100
C1012       C  0.14265923  0.37887357  0.38156138    -0.00220
C1013       C  0.14597015  0.37037818  0.42124904    -0.11950
C1014       C  0.11919389  0.34559409  0.43962357     0.01990
H1015       H  0.06519431  0.31928027  0.36111775     0.14970
H1016       H  0.16797686  0.38519925  0.43837944     0.14970
C1017       C  0.12340485  0.33798639  0.48051969     0.36620
C1018       C  0.10941362  0.36605143  0.31871273     0.36520
N1019       N  0.12677424  0.33167860  0.51323102    -0.43720
N1020       N  0.10653638  0.37187822  0.28589405    -0.43720
C1021       C  0.13484101  0.52473753  0.63232024    -0.00140
C1022       C  0.13178546  0.52263978  0.59181145    -0.12010
C1023       C  0.11035840  0.54998266  0.57136401     0.02100
C1024       C  0.09371390  0.58155666  0.59118896    -0.00220
C1025       C  0.10150149  0.58648519  0.63074826    -0.11950
C1026       C  0.11992141  0.55749729  0.65181713     0.01990
H1027       H  0.14345291  0.49776085  0.57652575     0.14970
H1028       H  0.08996591  0.61138246  0.64604215     0.14970
C1029       C  0.11762155  0.55970056  0.69353577     0.36620
C1030       C  0.10560793  0.54440025  0.53030800     0.36520
N1031       N  0.11448110  0.56167523  0.72687367    -0.43720
N1032       N  0.10226676  0.53906750  0.49743444    -0.43720
C1033       C  0.06855589  0.33226585  0.60464810    -0.00140
C1034       C  0.10512470  0.32490291  0.62159892    -0.12010
C1035       C  0.12340965  0.35225749  0.64574751     0.02100
C1036       C  0.10464077  0.38747193  0.65424822    -0.00220
C1037       C  0.06635995  0.39279349  0.64083743    -0.11950
C1038       C  0.04883284  0.36648551  0.61535648     0.01990
H1039       H  0.12047762  0.29846266  0.61450693     0.14970
H1040       H  0.05128256  0.41946668  0.64777477     0.14970
C1041       C  0.01153321  0.37683669  0.59944203     0.36620
C1042       C  0.16240855  0.34455856  0.65911875     0.36520
N1043       N  0.98212262  0.38623273  0.58633156    -0.43720
N1044       N  0.19362412  0.33829002  0.66994965    -0.43720
C1045       C  0.05267389  0.60708632  0.13943002    -0.00140
C1046       C  0.05667495  0.56842514  0.15111591    -0.12010
C1047       C  0.08150813  0.54332366  0.13094131     0.02100
C1048       C  0.10318901  0.55714834  0.09893054    -0.00220
C1049       C  0.09999640  0.59605304  0.08788950    -0.11950
C1050       C  0.07439125  0.62085364  0.10738127     0.01990
H1051       H  0.03909449  0.55745934  0.17501549     0.14970
H1052       H  0.11690067  0.60679491  0.06341190     0.14970
C1053       C  0.06948345  0.65973611  0.09296825     0.36620
C1054       C  0.08467243  0.50374608  0.14384419     0.36520
N1055       N  0.06538785  0.69079149  0.08120893    -0.43720
N1056       N  0.08731962  0.47210009  0.15440283    -0.43720
C1057       C  0.10361791  0.36204048  0.09777904    -0.00140
C1058       C  0.09588013  0.36759994  0.13719499    -0.12010
C1059       C  0.07050573  0.34258537  0.15688295     0.02100
C1060       C  0.05375317  0.31068936  0.13720483    -0.00220
C1061       C  0.06390627  0.30366480  0.09837990    -0.11950
C1062       C  0.08858567  0.32927029  0.07847857     0.01990
H1063       H  0.10858013  0.39228129  0.15217126     0.14970
H1064       H  0.05033631  0.27971476  0.08296876     0.14970
C1065       C  0.09776948  0.32178209  0.03824868     0.36620
C1066       C  0.05852508  0.35263825  0.19576605     0.36520
N1067       N  0.10527530  0.31594211  0.00603836    -0.43720
N1068       N  0.04789275  0.36042634  0.22665644    -0.43720
C1069       C  0.21863961  0.46308533  0.19165911    -0.00140
C1070       C  0.23598968  0.43504652  0.21529688    -0.12010
C1071       C  0.22807980  0.43342186  0.25536013     0.02100
C1072       C  0.20004718  0.45851993  0.27224635    -0.00220
C1073       C  0.18348433  0.48691036  0.24837260    -0.11950
C1074       C  0.19361501  0.49040514  0.20926752     0.01990
H1075       H  0.25634117  0.41471194  0.20252943     0.14970
H1076       H  0.16159626  0.50635002  0.25979975     0.14970
C1077       C  0.17725135  0.52242273  0.18825739     0.36620
C1078       C  0.25032658  0.40672160  0.27834297     0.36520
N1079       N  0.16469849  0.54893569  0.17232953    -0.43720
N1080       N  0.26835566  0.38535155  0.29662610    -0.43720
C1081       C  0.41460577  0.33352658  0.86864254    -0.00140
C1082       C  0.39180093  0.31224387  0.89516456    -0.12010
C1083       C  0.36094355  0.32959440  0.91534791     0.02100
C1084       C  0.35213402  0.36880864  0.90875602    -0.00220
C1085       C  0.37254052  0.38901816  0.87968099    -0.11950
C1086       C  0.40421399  0.37204724  0.86022879     0.01990
H1087       H  0.39968953  0.28266399  0.90192964     0.14970
H1088       H  0.36429328  0.41843547  0.87287863     0.14970
C1089       C  0.42605341  0.39484384  0.83241230     0.36620
C1090       C  0.34087074  0.30740471  0.94479247     0.36520
N1091       N  0.44359160  0.41321479  0.81020489    -0.43720
N1092       N  0.32553239  0.28946004  0.96878477    -0.43720
C1093       C  0.24618931  0.27925315  0.01691802    -0.00140
C1094       C  0.24251802  0.25455471  0.98469347    -0.12010
C1095       C  0.25983593  0.21777721  0.98420476     0.02100
C1096       C  0.28268790  0.20545545  0.01592769    -0.00220
C1097       C  0.28341443  0.22863081  0.04926698    -0.11950
C1098       C  0.26494477  0.26456503  0.05048654     0.01990
H1099       H  0.22704485  0.26439012  0.95929520     0.14970
H1100       H  0.30010874  0.21951805  0.07417553     0.14970
C1101       C  0.26741259  0.28568548  0.08658729     0.36620
C1102       C  0.25346684  0.19334765  0.95081498     0.36520
N1103       N  0.26912682  0.30191082  0.11590295    -0.43720
N1104       N  0.24837454  0.17379877  0.92401645    -0.43720
C1105       C  0.04591750  0.58395359  0.86978758    -0.00140
C1106       C  0.08052822  0.60446748  0.87710642    -0.12010
C1107       C  0.11006553  0.58786344  0.89900830     0.02100
C1108       C  0.10456391  0.55023536  0.91446297    -0.00220
C1109       C  0.07104220  0.52914926  0.90512556    -0.11950
C1110       C  0.04211070  0.54536881  0.88271073     0.01990
H1111       H  0.08372927  0.63415253  0.86721335     0.14970
H1112       H  0.06753894  0.49947642  0.91506989     0.14970
C1113       C  0.00985701  0.52050934  0.87321604     0.36620
C1114       C  0.14479782  0.61070728  0.90592732     0.36520
N1115       N  0.98621672  0.49733507  0.86713969    -0.43720
N1116       N  0.17269374  0.62917198  0.91077171    -0.43720
C1117       C  0.09156376  0.37799091  0.90889827    -0.00140
C1118       C  0.05209992  0.38338846  0.91937227    -0.12010
C1119       C  0.02087483  0.36971864  0.89621270     0.02100
C1120       C  0.02776251  0.35259524  0.85928052    -0.00220
C1121       C  0.06718666  0.34627563  0.84912812    -0.11950
C1122       C  0.09845608  0.35736488  0.87373119     0.01990
H1123       H  0.04532354  0.39707664  0.94686976     0.14970
H1124       H  0.07386226  0.33211328  0.82186737     0.14970
C1125       C  0.13704052  0.34522814  0.86256095     0.36620
C1126       C  0.98253819  0.36961426  0.91372922     0.36520
N1127       N  0.16763585  0.33417356  0.85383318    -0.43720
N1128       N  0.95262435  0.36868712  0.92951255    -0.43720
C1129       C  0.21980701  0.45792161  0.82696159    -0.00140
C1130       C  0.21243496  0.49309528  0.80844920    -0.12010
C1131       C  0.20146364  0.49462237  0.76954433     0.02100
C1132       C  0.19497214  0.45968535  0.74815180    -0.00220
C1133       C  0.20752000  0.42499037  0.76547137    -0.11950
C1134       C  0.22042464  0.42390282  0.80397434     0.01990
H1135       H  0.21459097  0.51998972  0.82465117     0.14970
H1136       H  0.20724658  0.39825932  0.74897878     0.14970
C1137       C  0.23534731  0.38773333  0.81837315     0.36620
C1138       C  0.19919006  0.53308708  0.75367041     0.36520
N1139       N  0.24791809  0.35890775  0.82967457    -0.43720
N1140       N  0.19954322  0.56448626  0.74195158    -0.43720
C1141       C  0.35636671  0.54723318  0.90913449    -0.00140
C1142       C  0.35110521  0.58659239  0.90054240    -0.12010
C1143       C  0.37838524  0.60695997  0.87785458     0.02100
C1144       C  0.40973592  0.58683782  0.86021302    -0.00220
C1145       C  0.41141310  0.54634883  0.86491182    -0.11950
C1146       C  0.38765960  0.52740211  0.89187417     0.01990
H1147       H  0.32705624  0.60210857  0.91383506     0.14970
H1148       H  0.43461037  0.53011202  0.85102760     0.14970
C1149       C  0.39919210  0.48942190  0.90449073     0.36620
C1150       C  0.37494228  0.64858686  0.87632314     0.36520
N1151       N  0.41015685  0.46006039  0.91601723    -0.43720
N1152       N  0.37191388  0.68194006  0.87541931    -0.43720
C1153       C  0.25088353  0.64287775  0.01376540    -0.00140
C1154       C  0.23726337  0.66871486  0.98560193    -0.12010
C1155       C  0.24585362  0.70884665  0.98730920     0.02100
C1156       C  0.27148972  0.72399766  0.01604701    -0.00220
C1157       C  0.28482911  0.69792937  0.04417410    -0.11950
C1158       C  0.27364566  0.65872789  0.04430829     0.01990
H1159       H  0.21854485  0.65778333  0.96292353     0.14970
H1160       H  0.30455469  0.70793697  0.06653844     0.14970
C1161       C  0.28571184  0.63625480  0.07720204     0.36620
C1162       C  0.22578620  0.73369541  0.96059322     0.36520
N1163       N  0.29470544  0.61966710  0.10474511    -0.43720
N1164       N  0.20947070  0.75348495  0.93919468    -0.43720
C1165       C  0.84623904  0.87144215  0.36372494    -0.00140
C1166       C  0.87498333  0.84789370  0.34707999    -0.12010
C1167       C  0.89506530  0.82091249  0.36956876     0.02100
C1168       C  0.88744588  0.81826749  0.40975733    -0.00220
C1169       C  0.85720881  0.84018402  0.42597800    -0.11950
C1170       C  0.83621105  0.86622501  0.40316208     0.01990
H1171       H  0.88327444  0.85217807  0.31700428     0.14970
H1172       H  0.85032389  0.83728906  0.45656181     0.14970
C1173       C  0.80632098  0.88935197  0.42139718     0.36620
C1174       C  0.92483759  0.79778264  0.35116690     0.36520
N1175       N  0.78250147  0.90806180  0.43598478    -0.43720
N1176       N  0.94858518  0.77927945  0.33621297    -0.43720
C1177       C  0.87203126  0.00873803  0.36411889    -0.00140
C1178       C  0.87640135  0.04531256  0.34661019    -0.12010
C1179       C  0.89257996  0.07685107  0.36693075     0.02100
C1180       C  0.90545324  0.07190109  0.40550418    -0.00220
C1181       C  0.90208929  0.03526331  0.42241765    -0.11950
C1182       C  0.88514953  0.00422120  0.40285258     0.01990
H1183       H  0.86704335  0.04939894  0.31698032     0.14970
H1184       H  0.91159813  0.03097436  0.45201936     0.14970
C1185       C  0.88047353  0.96896306  0.42493477     0.36620
C1186       C  0.89647608  0.11343931  0.34700515     0.36520
N1187       N  0.87789338  0.94114675  0.44344264    -0.43720
N1188       N  0.89964290  0.14267771  0.33088717    -0.43720
C1189       C  0.06973294  0.82916447  0.40914123    -0.00140
C1190       C  0.07824449  0.82126696  0.36981121    -0.12010
C1191       C  0.09710338  0.84895139  0.34615826     0.02100
C1192       C  0.10847993  0.88484521  0.36211083    -0.00220
C1193       C  0.10175456  0.89171069  0.40171116    -0.11950
C1194       C  0.08200444  0.86490736  0.42489768     0.01990
H1195       H  0.06912050  0.79386280  0.35721287     0.14970
H1196       H  0.11105357  0.91903354  0.41445304     0.14970
C1197       C  0.07491278  0.87540539  0.46469790     0.36620
C1198       C  0.10290178  0.84060026  0.30557185     0.36520
N1199       N  0.06925842  0.88486277  0.49634983    -0.43720
N1200       N  0.10749144  0.83387548  0.27301318    -0.43720
C1201       C  0.07385950  0.07745713  0.40528494    -0.00140
C1202       C  0.11076817  0.06378595  0.41516204    -0.12010
C1203       C  0.12945038  0.03609831  0.39226853     0.02100
C1204       C  0.11149174  0.02258467  0.35804893    -0.00220
C1205       C  0.07501015  0.03723546  0.34746967    -0.11950
C1206       C  0.05612379  0.06454872  0.37082660     0.01990
H1207       H  0.12474422  0.07414713  0.44114312     0.14970
H1208       H  0.06069365  0.02621639  0.32171570     0.14970
C1209       C  0.01837561  0.07847277  0.35923494     0.36620
C1210       C  0.16552960  0.01987971  0.40607176     0.36520
N1211       N  0.98824411  0.08975448  0.34968089    -0.43720
N1212       N  0.19426434  0.00663908  0.41721505    -0.43720
C1213       C  0.55303350  0.33558320  0.14219347    -0.00140
C1214       C  0.58938738  0.31767639  0.13723748    -0.12010
C1215       C  0.62071306  0.33724441  0.11921742     0.02100
C1216       C  0.61516667  0.37433562  0.10282216    -0.00220
C1217       C  0.57954206  0.39283408  0.10954093    -0.11950
C1218       C  0.54979188  0.37505148  0.13113776     0.01990
H1219       H  0.59322420  0.28792533  0.14627196     0.14970
H1220       H  0.57513863  0.42184534  0.09854117     0.14970
C1221       C  0.51661376  0.39845762  0.14192927     0.36620
C1222       C  0.65781160  0.31813680  0.11783265     0.36520
N1223       N  0.49001333  0.41720389  0.15034618    -0.43720
N1224       N  0.68760982  0.30275320  0.11813436    -0.43720
C1225       C  0.35570275  0.35934305  0.08898779    -0.00140
C1226       C  0.35211688  0.34897592  0.12823213    -0.12010
C1227       C  0.38030831  0.32604403  0.14603891     0.02100
C1228       C  0.41216789  0.31223702  0.12409809    -0.00220
C1229       C  0.41349545  0.31942357  0.08410141    -0.11950
C1230       C  0.38643153  0.34361604  0.06667223     0.01990
H1231       H  0.32833682  0.36048176  0.14554877     0.14970
H1232       H  0.43776891  0.30858349  0.06699037     0.14970
C1233       C  0.39237681  0.35311481  0.02636630     0.36620
C1234       C  0.37750203  0.31976930  0.18729100     0.36520
N1235       N  0.39822885  0.36110752  0.99432096    -0.43720
N1236       N  0.37525828  0.31472499  0.22036087    -0.43720
C1237       C  0.55292678  0.60115459  0.13520132    -0.00140
C1238       C  0.55713885  0.56211334  0.14583006    -0.12010
C1239       C  0.58341169  0.53813878  0.12619194     0.02100
C1240       C  0.60462346  0.55287643  0.09438374    -0.00220
C1241       C  0.60234347  0.59234192  0.08553449    -0.11950
C1242       C  0.57688565  0.61657362  0.10560308     0.01990
H1243       H  0.53918395  0.55021431  0.16900975     0.14970
H1244       H  0.62101839  0.60436505  0.06306172     0.14970
C1245       C  0.57545297  0.65665486  0.09420283     0.36620
C1246       C  0.59009029  0.49977522  0.14097495     0.36520
N1247       N  0.57565015  0.68863912  0.08434345    -0.43720
N1248       N  0.59595206  0.46960812  0.15410176    -0.43720
C1249       C  0.35824003  0.55571184  0.09415240    -0.00140
C1250       C  0.38338712  0.57768404  0.07059054    -0.12010
C1251       C  0.40971727  0.60413469  0.08685766     0.02100
C1252       C  0.41183737  0.60832936  0.12753824    -0.00220
C1253       C  0.38568867  0.58751129  0.15111962    -0.11950
C1254       C  0.35870045  0.56153080  0.13475545     0.01990
H1255       H  0.38213423  0.57449386  0.03934947     0.14970
H1256       H  0.38777072  0.59000031  0.18236064     0.14970
C1257       C  0.33272827  0.54023411  0.16026579     0.36620
C1258       C  0.43548053  0.62571484  0.06134391     0.36520
N1259       N  0.31182146  0.52328785  0.18070431    -0.43720
N1260       N  0.45621704  0.64297324  0.04100253    -0.43720
C1261       C  0.56866658  0.06498835  0.13375291    -0.00140
C1262       C  0.60525206  0.08301404  0.14027055    -0.12010
C1263       C  0.62229566  0.10802441  0.11267353     0.02100
C1264       C  0.60161537  0.11735848  0.07880843    -0.00220
C1265       C  0.56331201  0.10276892  0.07470176    -0.11950
C1266       C  0.54798251  0.07492882  0.09994597     0.01990
H1267       H  0.62158374  0.07599846  0.16608399     0.14970
H1268       H  0.54680014  0.11004839  0.04902929     0.14970
C1269       C  0.51209095  0.05579493  0.08867690     0.36620
C1270       C  0.66187124  0.12140212  0.11856760     0.36520
N1271       N  0.48354802  0.04042646  0.07908336    -0.43720
N1272       N  0.69362630  0.13208051  0.12330094    -0.43720
C1273       C  0.34909364  0.09085261  0.07976636    -0.00140
C1274       C  0.35423230  0.10730291  0.11647107    -0.12010
C1275       C  0.37098600  0.08606170  0.14649385     0.02100
C1276       C  0.38471398  0.04787721  0.13940312    -0.00220
C1277       C  0.37629453  0.03036892  0.10378348    -0.11950
C1278       C  0.35754300  0.05098667  0.07455999     0.01990
H1279       H  0.34726403  0.13754223  0.12116923     0.14970
H1280       H  0.38466013  0.00055860  0.09861894     0.14970
C1281       C  0.34793265  0.03067126  0.03919498     0.36620
C1282       C  0.37568165  0.10546164  0.18333205     0.36520
N1283       N  0.34045234  0.01459191  0.01071563    -0.43720
N1284       N  0.37911781  0.12121873  0.21275490    -0.43720
C1285       C  0.48712201  0.21848607  0.20433565    -0.00140
C1286       C  0.47757572  0.18636576  0.18141532    -0.12010
C1287       C  0.47733706  0.14906704  0.19666293     0.02100
C1288       C  0.48589009  0.14280908  0.23599602    -0.00220
C1289       C  0.49670787  0.17475813  0.25905847    -0.11950
C1290       C  0.49730002  0.21258320  0.24347548     0.01990
H1291       H  0.47068954  0.19046120  0.15105719     0.14970
H1292       H  0.50452255  0.17024273  0.28904861     0.14970
C1293       C  0.50748311  0.24482698  0.26814939     0.36620
C1294       C  0.47015430  0.11748369  0.17046054     0.36520
N1295       N  0.51566129  0.27076996  0.28786293    -0.43720
N1296       N  0.46452707  0.09260110  0.14880328    -0.43720
C1297       C  0.35873247  0.82054280  0.44442777    -0.00140
C1298       C  0.39387150  0.80724851  0.42840977    -0.12010
C1299       C  0.41596154  0.83084992  0.40351660     0.02100
C1300       C  0.40317079  0.86853028  0.39500218    -0.00220
C1301       C  0.36828866  0.88201696  0.41125290    -0.11950
C1302       C  0.34588324  0.85825246  0.43567678     0.01990
H1303       H  0.40459055  0.77890508  0.43635126     0.14970
H1304       H  0.35822818  0.91086618  0.40426703     0.14970
C1305       C  0.31062426  0.87363646  0.45272442     0.36620
C1306       C  0.45218599  0.81634041  0.38787268     0.36520
N1307       N  0.28236937  0.88585854  0.46644812    -0.43720
N1308       N  0.48117281  0.80463749  0.37526042    -0.43720
C1309       C  0.40268300  0.06855208  0.38719050    -0.00140
C1310       C  0.36666981  0.05759589  0.40326586    -0.12010
C1311       C  0.34630577  0.08287281  0.42758855     0.02100
C1312       C  0.36281169  0.11926403  0.43735033    -0.00220
C1313       C  0.39798459  0.13099874  0.41976925    -0.11950
C1314       C  0.41720713  0.10644000  0.39360877     0.01990
H1315       H  0.35439701  0.02926090  0.39670007     0.14970
H1316       H  0.41069925  0.15894897  0.42703328     0.14970
C1317       C  0.45102122  0.12101335  0.37293831     0.36620
C1318       C  0.30952616  0.06995811  0.44406444     0.36520
N1319       N  0.47766476  0.13307802  0.35588272    -0.43720
N1320       N  0.28004061  0.05984279  0.45734435    -0.43720
C1321       C  0.22314311  0.95140308  0.29816029    -0.00140
C1322       C  0.24862313  0.92396437  0.31369247    -0.12010
C1323       C  0.28846482  0.92429463  0.30457709     0.02100
C1324       C  0.30463175  0.95409423  0.28102885    -0.00220
C1325       C  0.27922277  0.98117238  0.26476452    -0.11950
C1326       C  0.23879416  0.97936044  0.27207898     0.01990
H1327       H  0.23771324  0.90238326  0.33389080     0.14970
H1328       H  0.29086279  0.00331994  0.24554267     0.14970
C1329       C  0.21406100  0.00564752  0.25122746     0.36620
C1330       C  0.31163116  0.89339852  0.32023227     0.36520
N1331       N  0.19429355  0.02667424  0.23439067    -0.43720
N1332       N  0.32937965  0.86774350  0.33213207    -0.43720
C1333       C  0.63884040  0.84504187  0.08102189    -0.00140
C1334       C  0.62514174  0.82292468  0.11249028    -0.12010
C1335       C  0.60377123  0.84009805  0.14267822     0.02100
C1336       C  0.59153637  0.87910218  0.13944196    -0.00220
C1337       C  0.60803366  0.90190135  0.11006768    -0.11950
C1338       C  0.63355355  0.88581055  0.08271234     0.01990
H1339       H  0.63033473  0.79204591  0.11344804     0.14970
H1340       H  0.60232687  0.93276109  0.10950831     0.14970
C1341       C  0.65535967  0.91215684  0.05818250     0.36620
C1342       C  0.59673017  0.81735661  0.17705754     0.36520
N1343       N  0.67301523  0.93383487  0.03931552    -0.43720
N1344       N  0.59304251  0.79915320  0.20497351    -0.43720
C1345       C  0.33342913  0.83641180  0.08984595    -0.00140
C1346       C  0.35805427  0.81380713  0.11262028    -0.12010
C1347       C  0.38258295  0.83110655  0.14023989     0.02100
C1348       C  0.38528608  0.87191819  0.14315781    -0.00220
C1349       C  0.35868321  0.89426992  0.12244092    -0.11950
C1350       C  0.33168219  0.87667283  0.09744507     0.01990
H1351       H  0.35890517  0.78271156  0.10819135     0.14970
H1352       H  0.35796862  0.92537099  0.12696329     0.14970
C1353       C  0.30069039  0.89992867  0.08206331     0.36620
C1354       C  0.40360215  0.80607598  0.16572150     0.36520
N1355       N  0.27506996  0.91851609  0.07119733    -0.43720
N1356       N  0.41869024  0.78494969  0.18658900    -0.43720
C1357       C  0.48567605  0.71379101  0.19906135    -0.00140
C1358       C  0.46909631  0.71752835  0.23623705    -0.12010
C1359       C  0.47048638  0.75313180  0.25619713     0.02100
C1360       C  0.49039488  0.78512191  0.23959246    -0.00220
C1361       C  0.50600080  0.78133376  0.20217128    -0.11950
C1362       C  0.50337144  0.74649743  0.18171133     0.01990
H1363       H  0.45434304  0.69282564  0.24929623     0.14970
H1364       H  0.51752862  0.80679847  0.18755614     0.14970
C1365       C  0.51492289  0.74665635  0.14147651     0.36620
C1366       C  0.44952169  0.75639861  0.29235021     0.36520
N1367       N  0.52327557  0.74811902  0.10900008    -0.43720
N1368       N  0.43168912  0.75826698  0.32085297    -0.43720
C1369       C  0.58087036  0.87425253  0.39062164    -0.00140
C1370       C  0.55944434  0.84977115  0.41514114    -0.12010
C1371       C  0.57834412  0.82501519  0.44069133     0.02100
C1372       C  0.61952593  0.82631061  0.44369967    -0.00220
C1373       C  0.64105160  0.85001886  0.41827510    -0.11950
C1374       C  0.62206695  0.87362390  0.39154445     0.01990
H1375       H  0.52785817  0.84989440  0.41417431     0.14970
H1376       H  0.67256779  0.85191218  0.42090568     0.14970
C1377       C  0.64546336  0.89877467  0.36727122     0.36620
C1378       C  0.55483583  0.79917044  0.46428194     0.36520
N1379       N  0.66468197  0.91888797  0.34818924    -0.43720
N1380       N  0.53599340  0.77847738  0.48316571    -0.43720
C1381       C  0.60655461  0.11336016  0.44686138    -0.00140
C1382       C  0.62917824  0.08742353  0.42511472    -0.12010
C1383       C  0.61216156  0.06347589  0.39727563     0.02100
C1384       C  0.57211948  0.06640939  0.38951807    -0.00220
C1385       C  0.54936511  0.09255547  0.41073918    -0.11950
C1386       C  0.56619593  0.11618248  0.43919249     0.01990
H1387       H  0.65958993  0.08339147  0.43221282     0.14970
H1388       H  0.51824473  0.09356251  0.40594113     0.14970
C1389       C  0.54130786  0.14202283  0.46091254     0.36620
C1390       C  0.63492057  0.03223254  0.38159707     0.36520
N1391       N  0.52124861  0.16247793  0.47846719    -0.43720
N1392       N  0.65285022  0.00616413  0.37069617    -0.43720
C1393       C  0.74990094  0.96045108  0.29830075    -0.00140
C1394       C  0.73403164  0.93258070  0.27285014    -0.12010
C1395       C  0.69567403  0.93542605  0.25899386     0.02100
C1396       C  0.67226259  0.96738490  0.26957704    -0.00220
C1397       C  0.68956468  0.99737664  0.29110409    -0.11950
C1398       C  0.72706317  0.99364814  0.30682458     0.01990
H1399       H  0.75129292  0.90771216  0.26451532     0.14970
H1400       H  0.67238733  0.02253418  0.29868874     0.14970
C1401       C  0.73901801  0.02274195  0.33454672     0.36620
C1402       C  0.68110007  0.90488999  0.23417829     0.36520
N1403       N  0.74829831  0.04620829  0.35673618    -0.43720
N1404       N  0.66950468  0.88037324  0.21431166    -0.43720
loop_ 
_geom_bond_atom_site_label_1 
_geom_bond_atom_site_label_2 
_geom_bond_distance 
_geom_bond_site_symmetry_2 
_ccdc_geom_bond_type 
O1          Zr37   2.435       .  S
O1           C12   1.291       .  A
O2          Zr36   2.471       .  S
O2           C13   1.298       .  A
O3           Zr9   2.431       .  S
O3           C14   1.291       .  A
O4           Zr9   2.442       .  S
O4           C15   1.292       .  A
O5          Zr39   2.427   1_545  S
O5           C15   1.290       .  A
O6          Zr38   2.463   1_545  S
O6           C14   1.298       .  A
O7           Zr9   2.441       .  S
O7           C13   1.291       .  A
O8           Zr9   2.462       .  S
O8           C12   1.297   1_545  A
Zr9          O10   2.342       .  S
Zr9          O11   2.341   1_545  S
Zr9          O19   2.339   1_545  S
Zr9          O17   2.351       .  S
O10         Zr36   2.338       .  S
O10         Zr39   2.343   1_545  S
O11         Zr37   2.339       .  S
O11         Zr38   2.356       .  S
C12        C1396   1.496       .  S
C13        C1288   1.483       .  S
C14        C1261   1.492       .  S
C15        C1384   1.466       .  S
H16          O17   0.963       .  S
O17         Zr36   2.336       .  S
O17         Zr38   2.336   1_545  S
H18          O19   0.966       .  S
O19         Zr37   2.346       .  S
O19         Zr39   2.349       .  S
O20         Zr36   2.472   1_565  S
O20          C43   1.298       .  A
O21         Zr37   2.456       .  S
O21          C44   1.295       .  A
O22         Zr38   2.480   1_545  S
O22          C45   1.302       .  A
O23         Zr39   2.476   1_545  S
O23          C46   1.299       .  A
O24         Zr39   2.460       .  S
O24          C47   1.297       .  A
O25         Zr38   2.488       .  S
O25          C48   1.304       .  A
O26         Zr40   2.421       .  S
O26          C49   1.288       .  A
O27         Zr40   2.419       .  S
O27          C50   1.287       .  A
O28         Zr38   2.480       .  S
O28          C49   1.301       .  A
O29         Zr39   2.445       .  S
O29          C50   1.293       .  A
O30         Zr36   2.397       .  S
O30          C45   1.283       .  A
O31         Zr37   2.402       .  S
O31          C48   1.285       .  A
O32         Zr37   2.412       .  S
O32          C47   1.287       .  A
O33         Zr36   2.398       .  S
O33          C46   1.283       .  A
O34         Zr40   2.420       .  S
O34          C43   1.288       .  A
O35         Zr40   2.435       .  S
O35          C44   1.289       .  A
Zr36         O42   2.335   1_545  S
Zr36         O54   2.343   1_545  S
Zr37         O41   2.336       .  S
Zr37         O52   2.340       .  S
Zr38         O42   2.344       .  S
Zr38         O52   2.335       .  S
Zr39         O41   2.354       .  S
Zr39         O54   2.335       .  S
Zr40         O41   2.332       .  S
Zr40         O42   2.337       .  S
Zr40         O54   2.349       .  S
Zr40         O52   2.340       .  S
C43        C1324   1.491       .  S
C44        C1360   1.479       .  S
C45        C1276   1.487       .  S
C46        C1309   1.469       .  S
C47        C1369   1.469       .  S
C48        C1336   1.485       .  S
C49        C1348   1.483       .  S
C50        C1300   1.464       .  S
H51          O52   0.965       .  S
H53          O54   0.966       .  S
C55        C1357   1.485       .  S
C55          C56   1.413       .  A
C55          C60   1.411       .  A
C56          C57   1.407       .  A
C56          H61   1.083       .  S
C57        C1252   1.476       .  S
C57          C58   1.391       .  A
C58          C59   1.389       .  A
C58          H62   1.086       .  S
C59        C1237   1.473       .  S
C59          C60   1.403       .  A
C60          H63   1.084       .  S
C64        C1285   1.486       .  S
C64          C65   1.408       .  A
C64          C69   1.415       .  A
C65          C66   1.397       .  A
C65          H70   1.084       .  S
C66        C1228   1.480       .  S
C66          C67   1.392       .  A
C67          C68   1.398       .  A
C67          H71   1.081       .  S
C68        C1213   1.500       .  S
C68          C69   1.416       .  A
C69          H72   1.082       .  S
C73        C1321   1.501       .  S
C73          C74   1.410       .  A
C73          C78   1.420       .  A
C74          C75   1.400       .  A
C74          H79   1.083   1_565  S
C75        C1204   1.474   1_565  S
C75          C76   1.390       .  A
C76          C77   1.396       .  A
C76          H80   1.086       .  S
C77        C1192   1.486       .  S
C77          C78   1.407       .  A
C78          H81   1.082       .  S
C82        C1393   1.509       .  S
C82          C83   1.418       .  A
C82          C87   1.414       .  A
C83          C84   1.406       .  A
C83          H88   1.083       .  S
C84        C1165   1.480       .  S
C84          C85   1.393       .  A
C85          C86   1.395       .  A
C85          H89   1.084       .  S
C86        C1177   1.496   1_565  S
C86          C87   1.407       .  A
C87          H90   1.078   1_565  S
O91        Zr127   2.465       .  S
O91         C102   1.298       .  A
O92        Zr126   2.458       .  S
O92         C103   1.296       .  A
O93         Zr99   2.426       .  S
O93         C104   1.288       .  A
O94         Zr99   2.433       .  S
O94         C105   1.290       .  A
O95        Zr129   2.454       .  S
O95         C105   1.294       .  A
O96        Zr128   2.501       .  S
O96         C104   1.303   1_556  A
O97         Zr99   2.423       .  S
O97         C103   1.289       .  A
O98         Zr99   2.409       .  S
O98         C102   1.286       .  A
Zr99        O100   2.331       .  S
Zr99        O101   2.338       .  S
Zr99        O109   2.341       .  S
Zr99        O107   2.338       .  S
O100       Zr126   2.350       .  S
O100       Zr129   2.328       .  S
O101       Zr127   2.336       .  S
O101       Zr128   2.317   1_554  S
C102       C1249   1.474       .  S
C103       C1048   1.470       .  S
C104       C1153   1.511       .  S
C105       C1069   1.492       .  S
H106        O107   0.966       .  S
O107       Zr126   2.362       .  S
O107       Zr128   2.337   1_554  S
H108        O109   0.966       .  S
O109       Zr127   2.358       .  S
O109       Zr129   2.326       .  S
O110       Zr126   2.484   1_556  S
O110        C133   1.302       .  A
O111       Zr127   2.466   1_556  S
O111        C134   1.298       .  A
O112       Zr128   2.379       .  S
O112        C135   1.281       .  A
O113       Zr129   2.392       .  S
O113        C136   1.282       .  A
O114       Zr129   2.421       .  S
O114        C137   1.289       .  A
O115       Zr128   2.403       .  S
O115        C138   1.285       .  A
O116       Zr130   2.426       .  S
O116        C139   1.289       .  A
O117       Zr130   2.477       .  S
O117        C140   1.300   1_556  A
O118       Zr128   2.456       .  S
O118        C139   1.297       .  A
O119       Zr129   2.407       .  S
O119        C140   1.285       .  A
O120       Zr126   2.444   1_556  S
O120        C135   1.296       .  A
O121       Zr127   2.448   1_556  S
O121        C138   1.294       .  A
O122       Zr127   2.438       .  S
O122        C137   1.293       .  A
O123       Zr126   2.456       .  S
O123        C136   1.296       .  A
O124       Zr130   2.486       .  S
O124        C133   1.300       .  A
O125       Zr130   2.434       .  S
O125        C134   1.290       .  A
Zr126       O132   2.330   1_554  S
Zr126       O144   2.351       .  S
Zr127       O131   2.338       .  S
Zr127       O142   2.339   1_554  S
Zr128       O132   2.352       .  S
Zr128       O142   2.339       .  S
Zr129       O131   2.331       .  S
Zr129       O144   2.360       .  S
Zr130       O131   2.341   1_556  S
Zr130       O132   2.338       .  S
Zr130       O144   2.332   1_556  S
Zr130       O142   2.365       .  S
C133       C1117   1.534       .  S
C134       C1084   1.478       .  S
C135       C1108   1.464       .  S
C136       C1057   1.454       .  S
C137       C1225   1.477       .  S
C138       C1141   1.473       .  S
C139       C1129   1.496       .  S
C140       C1093   1.499       .  S
H141        O142   0.965       .  S
H143        O144   0.966       .  S
C145       C1132   1.518       .  S
C145        C146   1.427       .  A
C145        C150   1.414       .  A
C146        C147   1.410       .  A
C146        H151   1.081       .  S
C147       C1036   1.491       .  S
C147        C148   1.392       .  A
C148        C149   1.388       .  A
C148        H152   1.084       .  S
C149       C1021   1.480       .  S
C149        C150   1.399       .  A
C150        H153   1.073       .  S
C154       C1072   1.507       .  S
C154        C155   1.418       .  A
C154        C159   1.415       .  A
C155        C156   1.402       .  A
C155        H160   1.082       .  S
C156        C997   1.485       .  S
C156        C157   1.389       .  A
C157        C158   1.394       .  A
C157        H161   1.085       .  S
C158       C1012   1.483       .  S
C158        C159   1.408       .  A
C159        H162   1.081       .  S
C163       C1096   1.498       .  S
C163        C164   1.419       .  A
C163        C168   1.409   1_554  A
C164        C165   1.411       .  A
C164        H169   1.083       .  S
C165       C1273   1.491       .  S
C165        C166   1.393       .  A
C166        C167   1.390   1_554  A
C166        H170   1.083       .  S
C167        C988   1.472       .  S
C167        C168   1.398       .  A
C168        H171   1.082       .  S
C172       C1156   1.521       .  S
C172        C173   1.422       .  A
C172        C177   1.418   1_554  A
C173        C174   1.409       .  A
C173        H178   1.082       .  S
C174       C1345   1.493       .  S
C174        C175   1.393       .  A
C175        C176   1.399   1_554  A
C175        H179   1.082       .  S
C176        C976   1.505       .  S
C176        C177   1.415       .  A
C177        H180   1.076       .  S
O181       Zr217   2.423       .  S
O181        C192   1.288       .  A
O182       Zr216   2.407       .  S
O182        C193   1.286       .  A
O183       Zr189   2.460   1_455  S
O183        C194   1.297       .  A
O184       Zr189   2.438       .  S
O184        C195   1.294       .  A
O185       Zr219   2.434       .  S
O185        C195   1.290       .  A
O186       Zr218   2.412       .  S
O186        C194   1.286       .  A
O187       Zr189   2.451       .  S
O187        C193   1.295       .  A
O188       Zr189   2.457   1_455  S
O188        C192   1.296       .  A
Zr189       O190   2.339       .  S
Zr189       O191   2.342   1_655  S
Zr189       O199   2.345       .  S
Zr189       O197   2.352       .  S
O190       Zr216   2.337       .  S
O190       Zr219   2.322       .  S
O191       Zr217   2.341       .  S
O191       Zr218   2.337       .  S
C192       C1201   1.467       .  S
C193        C925   1.462       .  S
C194        C901   1.467       .  S
C195       C1180   1.485       .  S
H196        O197   0.966       .  S
O197       Zr216   2.337       .  S
O197       Zr218   2.341   1_655  S
H198        O199   0.965       .  S
O199       Zr217   2.330   1_655  S
O199       Zr219   2.332       .  S
O200       Zr216   2.425       .  S
O200        C223   1.288       .  A
O201       Zr217   2.398       .  S
O201        C224   1.284       .  A
O202       Zr218   2.429       .  S
O202        C225   1.290   1_455  A
O203       Zr219   2.440       .  S
O203        C226   1.292       .  A
O204       Zr219   2.424       .  S
O204        C227   1.289       .  A
O205       Zr218   2.443       .  S
O205        C228   1.292       .  A
O206       Zr220   2.463   1_455  S
O206        C229   1.298       .  A
O207       Zr220   2.489       .  S
O207        C230   1.303       .  A
O208       Zr218   2.418       .  S
O208        C229   1.289       .  A
O209       Zr219   2.395       .  S
O209        C230   1.284       .  A
O210       Zr216   2.436       .  S
O210        C225   1.290       .  A
O211       Zr217   2.454       .  S
O211        C228   1.293       .  A
O212       Zr217   2.456       .  S
O212        C227   1.294   1_455  A
O213       Zr216   2.425       .  S
O213        C226   1.289       .  A
O214       Zr220   2.484       .  S
O214        C223   1.302       .  A
O215       Zr220   2.470   1_455  S
O215        C224   1.299       .  A
Zr216       O222   2.316       .  S
Zr216       O234   2.339       .  S
Zr217       O221   2.342   1_455  S
Zr217       O232   2.347       .  S
Zr218       O222   2.326   1_455  S
Zr218       O232   2.337       .  S
Zr219       O221   2.339       .  S
Zr219       O234   2.350       .  S
Zr220       O221   2.342       .  S
Zr220       O222   2.330       .  S
Zr220       O234   2.355       .  S
Zr220       O232   2.366   1_655  S
C223        C949   1.501       .  S
C224       C1009   1.463       .  S
C225        C964   1.477       .  S
C226        C937   1.477       .  S
C227        C892   1.479       .  S
C228        C913   1.481       .  S
C229       C1033   1.491       .  S
C230        C880   1.476       .  S
H231        O232   0.966       .  S
H233        O234   0.966       .  S
C235        C940   1.484       .  S
C235        C236   1.406       .  A
C235        C240   1.408       .  A
C236        C237   1.401       .  A
C236        H241   1.084       .  S
C237       C1381   1.478       .  S
C237        C238   1.394       .  A
C238        C239   1.396       .  A
C238        H242   1.085       .  S
C239        C868   1.476       .  S
C239        C240   1.405       .  A
C240        H243   1.084       .  S
C244        C916   1.485       .  S
C244        C245   1.406       .  A
C244        C249   1.413       .  A
C245        C246   1.403       .  A
C245        H250   1.084       .  S
C246       C1312   1.476       .  S
C246        C247   1.394       .  A
C247        C248   1.399       .  A
C247        H251   1.084       .  S
C248        C856   1.494       .  S
C248        C249   1.410       .  A
C249        H252   1.083       .  S
C253        C889   1.495       .  S
C253        C254   1.410   1_655  A
C253        C258   1.415       .  A
C254        C255   1.402       .  A
C254        H259   1.084       .  S
C255       C1060   1.467       .  S
C255        C256   1.389   1_455  A
C256        C257   1.385       .  A
C256        H260   1.086       .  S
C257        C844   1.469       .  S
C257        C258   1.402       .  A
C258        H261   1.082       .  S
C262        C961   1.480       .  S
C262        C263   1.421       .  A
C262        C267   1.415       .  A
C263        C264   1.405       .  A
C263        H268   1.080       .  S
C264        C829   1.541       .  S
C264        C265   1.444       .  A
C265        C266   1.406       .  A
C265        H269   1.079       .  S
C266       C1120   1.535   1_655  S
C266        C267   1.401       .  A
C267        H270   1.083   1_655  S
O271       Zr307   2.465   1_455  S
O271        C282   1.299       .  A
O272       Zr306   2.462   1_455  S
O272        C283   1.299       .  A
O273       Zr279   2.452       .  S
O273        C284   1.293       .  A
O274       Zr279   2.430       .  S
O274        C285   1.290   1_455  A
O275       Zr309   2.439       .  S
O275        C285   1.292       .  A
O276       Zr308   2.439       .  S
O276        C284   1.291       .  A
O277       Zr279   2.417       .  S
O277        C283   1.288       .  A
O278       Zr279   2.420       .  S
O278        C282   1.288       .  A
Zr279       O280   2.347   1_455  S
Zr279       O281   2.337       .  S
Zr279       O289   2.334   1_455  S
Zr279       O287   2.329       .  S
O280       Zr306   2.350       .  S
O280       Zr309   2.335       .  S
O281       Zr307   2.343   1_455  S
O281       Zr308   2.337       .  S
C282       C1189   1.486       .  S
C283       C1000   1.484       .  S
C284        C793   1.480       .  S
C285        C745   1.481       .  S
H286        O287   0.965       .  S
O287       Zr306   2.360   1_455  S
O287       Zr308   2.332       .  S
H288        O289   0.965       .  S
O289       Zr307   2.346       .  S
O289       Zr309   2.334       .  S
O290       Zr306   2.491       .  S
O290        C313   1.303       .  A
O291       Zr307   2.456       .  S
O291        C314   1.298       .  A
O292       Zr308   2.423       .  S
O292        C315   1.289       .  A
O293       Zr309   2.401       .  S
O293        C316   1.284       .  A
O294       Zr309   2.416       .  S
O294        C317   1.287       .  A
O295       Zr308   2.404       .  S
O295        C318   1.284       .  A
O296       Zr310   2.431       .  S
O296        C319   1.289       .  A
O297       Zr310   2.444       .  S
O297        C320   1.292       .  A
O298       Zr308   2.438       .  S
O298        C319   1.292   1_455  A
O299       Zr309   2.430       .  S
O299        C320   1.289       .  A
O300       Zr306   2.458   1_455  S
O300        C315   1.297       .  A
O301       Zr307   2.462   1_455  S
O301        C318   1.300       .  A
O302       Zr307   2.476       .  S
O302        C317   1.300       .  A
O303       Zr306   2.466       .  S
O303        C316   1.301       .  A
O304       Zr310   2.435       .  S
O304        C313   1.292       .  A
O305       Zr310   2.411       .  S
O305        C314   1.286       .  A
Zr306       O312   2.331       .  S
Zr306       O324   2.359       .  S
Zr307       O311   2.332       .  S
Zr307       O322   2.351       .  S
Zr308       O312   2.330   1_455  S
Zr308       O322   2.338   1_455  S
Zr309       O311   2.327       .  S
Zr309       O324   2.355       .  S
Zr310       O311   2.333       .  S
Zr310       O312   2.335       .  S
Zr310       O324   2.336       .  S
Zr310       O322   2.335       .  S
C313        C808   1.513       .  S
C314        C757   1.477       .  S
C315       C1024   1.476       .  S
C316        C736   1.489       .  S
C317       C1168   1.476       .  S
C318        C781   1.490       .  S
C319        C820   1.469       .  S
C320        C769   1.471       .  S
H321        O322   0.965       .  S
H323        O324   0.966       .  S
C325        C772   1.480       .  S
C325        C326   1.410       .  A
C325        C330   1.410       .  A
C326        C327   1.405       .  A
C326        H331   1.084       .  S
C327       C1372   1.479       .  S
C327        C328   1.392       .  A
C328        C329   1.391       .  A
C328        H332   1.085       .  S
C329        C721   1.475       .  S
C329        C330   1.401       .  A
C330        H333   1.084       .  S
C334        C796   1.481       .  S
C334        C335   1.408       .  A
C334        C339   1.409       .  A
C335        C336   1.404       .  A
C335        H340   1.084       .  S
C336       C1297   1.471       .  S
C336        C337   1.392       .  A
C337        C338   1.392       .  A
C337        H341   1.086       .  S
C338        C709   1.474       .  S
C338        C339   1.404       .  A
C339        H342   1.084       .  S
C343        C748   1.480       .  S
C343        C344   1.407   1_655  A
C343        C348   1.409       .  A
C344        C345   1.398       .  A
C344        H349   1.083       .  S
C345       C1045   1.474       .  S
C345        C346   1.389   1_455  A
C346        C347   1.409       .  A
C346        H350   1.083       .  S
C347        C697   1.501       .  S
C347        C348   1.403       .  A
C348        H351   1.080       .  S
C352        C817   1.483       .  S
C352        C353   1.405   1_655  A
C352        C357   1.408       .  A
C353        C354   1.395       .  A
C353        H358   1.084       .  S
C354       C1105   1.468       .  S
C354        C355   1.390   1_455  A
C355        C356   1.400       .  A
C355        H359   1.084       .  S
C356        C685   1.482       .  S
C356        C357   1.408       .  A
C357        H360   1.083       .  S
O361       Zr397   2.381       .  S
O361        C372   1.281       .  A
O362       Zr396   2.476       .  S
O362        C373   1.296       .  A
O363       Zr369   2.441   1_556  S
O363        C374   1.292       .  A
O364       Zr369   2.454       .  S
O364        C375   1.297       .  A
O365       Zr399   2.440       .  S
O365        C375   1.292       .  A
O366       Zr398   2.418       .  S
O366        C374   1.288       .  A
O367       Zr369   2.411   1_556  S
O367        C373   1.287       .  A
O368       Zr369   2.480       .  S
O368        C372   1.299       .  A
Zr369       O370   2.360       .  S
Zr369       O371   2.332       .  S
Zr369       O379   2.337       .  S
Zr369       O377   2.405   1_554  S
O370       Zr396   2.329   1_554  S
O370       Zr399   2.343       .  S
O371       Zr397   2.379       .  S
O371       Zr398   2.351   1_554  S
C372       C1240   1.462       .  S
C373        C640   1.473       .  S
C374        C661   1.488       .  S
C375       C1216   1.490       .  S
H376        O377   0.966       .  S
O377       Zr396   2.356       .  S
O377       Zr398   2.320       .  S
H378        O379   0.965       .  S
O379       Zr397   2.330       .  S
O379       Zr399   2.336       .  S
O380       Zr396   2.509       .  S
O380        C403   1.299       .  A
O381       Zr397   2.427       .  S
O381        C404   1.286       .  A
O382       Zr398   2.664       .  S
O382        C405   1.341       .  A
O383       Zr399   2.456       .  S
O383        C406   1.293       .  A
O384       Zr399   2.433       .  S
O384        C407   1.291       .  A
O385       Zr398   2.499       .  S
O385        C408   1.304   1_556  A
O386       Zr400   2.533   1_556  S
O386        C409   1.307       .  A
O387       Zr400   2.487       .  S
O387        C410   1.300       .  A
O388       Zr398   2.368       .  S
O388        C409   1.275       .  A
O389       Zr399   2.380       .  S
O389        C410   1.281       .  A
O390       Zr396   2.423       .  S
O390        C405   1.278       .  A
O391       Zr397   2.432       .  S
O391        C408   1.291       .  A
O392       Zr397   2.477       .  S
O392        C407   1.299       .  A
O393       Zr396   2.436       .  S
O393        C406   1.292   1_556  A
O394       Zr400   2.370   1_556  S
O394        C403   1.250       .  A
O395       Zr400   2.407       .  S
O395        C404   1.282       .  A
Zr396       O402   2.329       .  S
Zr396       O414   2.359   1_556  S
Zr397       O401   2.344       .  S
Zr397       O412   2.346       .  S
Zr398       O402   2.312       .  S
Zr398       O412   2.405   1_556  S
Zr399       O401   2.389       .  S
Zr399       O414   2.393       .  S
Zr400       O401   2.308       .  S
Zr400       O402   2.393   1_554  S
Zr400       O414   2.430       .  S
Zr400       O412   2.332       .  S
C403        C613   1.468       .  S
C404        C700   1.473       .  S
C405        C832   1.582       .  S
C406        C652   1.498       .  S
C407        C625   1.492       .  S
C408        C676   1.490       .  S
C409        C688   1.496       .  S
C410        C841   1.468       .  S
H411        O412   0.964       .  S
H413        O414   0.967       .  S
C415        C616   1.607       .  S
C415        C416   1.437       .  A
C415        C420   1.447       .  A
C416        C417   1.428       .  A
C416        H421   1.080       .  S
C417        C805   1.507       .  S
C417        C418   1.393       .  A
C418        C419   1.383       .  A
C418        H422   1.074       .  S
C419        C952   1.539       .  S
C419        C420   1.423       .  A
C420        H423   1.065       .  S
C424        C628   1.505       .  S
C424        C425   1.414       .  A
C424        C429   1.416       .  A
C425        C426   1.404       .  A
C425        H430   1.083       .  S
C426        C877   1.476       .  S
C426        C427   1.391       .  A
C427        C428   1.393       .  A
C427        H431   1.082       .  S
C428        C733   1.500       .  S
C428        C429   1.415       .  A
C429        H432   1.080       .  S
C433        C649   1.518       .  S
C433        C434   1.425       .  A
C433        C438   1.425   1_554  A
C434        C435   1.409       .  A
C434        H439   1.082       .  S
C435       C1264   1.495       .  S
C435        C436   1.390       .  A
C436        C437   1.388   1_554  A
C436        H440   1.083       .  S
C437        C601   1.494       .  S
C437        C438   1.410       .  A
C438        H441   1.079       .  S
C442        C673   1.491       .  S
C442        C443   1.416       .  A
C442        C447   1.405   1_554  A
C443        C444   1.420       .  A
C443        H448   1.082       .  S
C444       C1333   1.503       .  S
C444        C445   1.401       .  A
C445        C446   1.393   1_554  A
C445        H449   1.083       .  S
C446        C592   1.479       .  S
C446        C447   1.400       .  A
C447        H450   1.084       .  S
O451       Zr487   2.416       .  S
O451        C462   1.288       .  A
O452       Zr486   2.400       .  S
O452        C463   1.283       .  A
O453       Zr459   2.474       .  S
O453        C464   1.301       .  A
O454       Zr459   2.463   1_545  S
O454        C465   1.297       .  A
O455       Zr489   2.408       .  S
O455        C465   1.287       .  A
O456       Zr488   2.404       .  S
O456        C464   1.285       .  A
O457       Zr459   2.479       .  S
O457        C463   1.301       .  A
O458       Zr459   2.450   1_545  S
O458        C462   1.296       .  A
Zr459       O460   2.347       .  S
Zr459       O461   2.359       .  S
Zr459       O469   2.338   1_565  S
Zr459       O467   2.334       .  S
O460       Zr486   2.340       .  S
O460       Zr489   2.340   1_565  S
O461       Zr487   2.340   1_565  S
O461       Zr488   2.339       .  S
C462        C985   1.471       .  S
C463        C589   1.471       .  S
C464        C973   1.482       .  S
C465        C604   1.477       .  S
H466        O467   0.965       .  S
O467       Zr486   2.339       .  S
O467       Zr488   2.341       .  S
H468        O469   0.964       .  S
O469       Zr487   2.345       .  S
O469       Zr489   2.321       .  S
O470       Zr486   2.406       .  S
O470        C493   1.286       .  A
O471       Zr487   2.428       .  S
O471        C494   1.289       .  A
O472       Zr488   2.438       .  S
O472        C495   1.291       .  A
O473       Zr489   2.449   1_565  S
O473        C496   1.293       .  A
O474       Zr489   2.461       .  S
O474        C497   1.296       .  A
O475       Zr488   2.430       .  S
O475        C498   1.289       .  A
O476       Zr490   2.459       .  S
O476        C499   1.296       .  A
O477       Zr490   2.462   1_545  S
O477        C500   1.297       .  A
O478       Zr488   2.410       .  S
O478        C499   1.286       .  A
O479       Zr489   2.399       .  S
O479        C500   1.284       .  A
O480       Zr486   2.440       .  S
O480        C495   1.291       .  A
O481       Zr487   2.459   1_565  S
O481        C498   1.295       .  A
O482       Zr487   2.440       .  S
O482        C497   1.292       .  A
O483       Zr486   2.431       .  S
O483        C496   1.289       .  A
O484       Zr490   2.456       .  S
O484        C493   1.297       .  A
O485       Zr490   2.450   1_545  S
O485        C494   1.297       .  A
Zr486       O492   2.333       .  S
Zr486       O504   2.337       .  S
Zr487       O491   2.338       .  S
Zr487       O502   2.335   1_545  S
Zr488       O492   2.337       .  S
Zr488       O502   2.339       .  S
Zr489       O491   2.340       .  S
Zr489       O504   2.331   1_545  S
Zr490       O491   2.346   1_565  S
Zr490       O492   2.353       .  S
Zr490       O504   2.322       .  S
Zr490       O502   2.333       .  S
C493        C724   1.476       .  S
C494        C853   1.494       .  S
C495        C541   1.473       .  S
C496        C577   1.467       .  S
C497        C556   1.499       .  S
C498        C565   1.473       .  S
C499        C712   1.464       .  S
C500        C865   1.462       .  S
H501        O502   0.965       .  S
H503        O504   0.964       .  S
C505        C544   1.475       .  S
C505        C506   1.407       .  A
C505        C510   1.410       .  A
C506        C507   1.402       .  A
C506        H511   1.083       .  S
C507       C1144   1.492       .  S
C507        C508   1.397       .  A
C508        C509   1.394       .  A
C508        H512   1.081       .  S
C509        C664   1.490       .  S
C509        C510   1.405       .  A
C510        H513   1.083       .  S
C514        C553   1.507       .  S
C514        C515   1.415       .  A
C514        C519   1.414       .  A
C515        C516   1.403       .  A
C515        H520   1.082       .  S
C516       C1081   1.484       .  S
C516        C517   1.398       .  A
C517        C518   1.400       .  A
C517        H521   1.085       .  S
C518        C637   1.485       .  S
C518        C519   1.407       .  A
C519        H522   1.082       .  S
C523        C568   1.481       .  S
C523        C524   1.403       .  A
C523        C528   1.412       .  A
C524        C525   1.397       .  A
C524        H529   1.084   1_565  S
C525        C904   1.467   1_565  S
C525        C526   1.393       .  A
C526        C527   1.397       .  A
C526        H530   1.083       .  S
C527        C784   1.495       .  S
C527        C528   1.414       .  A
C528        H531   1.083       .  S
C532        C580   1.476       .  S
C532        C533   1.404       .  A
C532        C537   1.410       .  A
C533        C534   1.395       .  A
C533        H538   1.084   1_565  S
C534        C928   1.465   1_565  S
C534        C535   1.388       .  A
C535        C536   1.397       .  A
C535        H539   1.084       .  S
C536        C760   1.489       .  S
C536        C537   1.411       .  A
C537        H540   1.083       .  S
C541        C542   1.404       .  A
C541        C546   1.412       .  A
C542        C543   1.405       .  A
C542        H547   1.084       .  S
C543        C544   1.410       .  A
C543        C550   1.442       .  S
C544        C545   1.399       .  A
C545        C546   1.394       .  A
C545        H548   1.085       .  S
C546        C549   1.444       .  S
C549        N551   1.157       .  T
C550        N552   1.157       .  T
C553        C554   1.406       .  A
C553        C558   1.420       .  A
C554        C555   1.398       .  A
C554        H559   1.083       .  S
C555        C556   1.418       .  A
C555        C562   1.443       .  S
C556        C557   1.407       .  A
C557        C558   1.409       .  A
C557        H560   1.085       .  S
C558        C561   1.443       .  S
C561        N563   1.157       .  T
C562        N564   1.156       .  T
C565        C566   1.403       .  A
C565        C570   1.408       .  A
C566        C567   1.399       .  A
C566        H571   1.085       .  S
C567        C568   1.409       .  A
C567        C574   1.442       .  S
C568        C569   1.406       .  A
C569        C570   1.406       .  A
C569        H572   1.084       .  S
C570        C573   1.442       .  S
C573        N575   1.157       .  T
C574        N576   1.156       .  T
C577        C578   1.401       .  A
C577        C582   1.407       .  A
C578        C579   1.394       .  A
C578        H583   1.086       .  S
C579        C580   1.409       .  A
C579        C586   1.445       .  S
C580        C581   1.406       .  A
C581        C582   1.407       .  A
C581        H584   1.084       .  S
C582        C585   1.443       .  S
C585        N587   1.157       .  T
C586        N588   1.157       .  T
C589        C590   1.399       .  A
C589        C594   1.411       .  A
C590        C591   1.399       .  A
C590        H595   1.084       .  S
C591        C592   1.413       .  A
C591        C598   1.443       .  S
C592        C593   1.399       .  A
C593        C594   1.397       .  A
C593        H596   1.085       .  S
C594        C597   1.435       .  S
C597        N599   1.154       .  T
C598        N600   1.157       .  T
C601        C602   1.414       .  A
C601        C606   1.412       .  A
C602        C603   1.400       .  A
C602        H607   1.085       .  S
C603        C604   1.406       .  A
C603        C610   1.441   1_545  S
C604        C605   1.403       .  A
C605        C606   1.398       .  A
C605        H608   1.086       .  S
C606        C609   1.437       .  S
C609        N611   1.155       .  T
C610        N612   1.157       .  T
C613        C614   1.755       .  A
C613        C618   1.678       .  A
C614        C615   1.766       .  A
C614        H619   1.081       .  S
C615        C616   1.782       .  A
C615        C622   1.438       .  S
C616        C617   2.645       .  A
C617        C618   1.647       .  A
C617        H620   1.097       .  S
C618        C621   1.442       .  S
C621        N623   1.156       .  T
C622        N624   1.158       .  T
C625        C626   1.405       .  A
C625        C630   1.414       .  A
C626        C627   1.408       .  A
C626        H631   1.085       .  S
C627        C628   1.420       .  A
C627        C634   1.444       .  S
C628        C629   1.409       .  A
C629        C630   1.405       .  A
C629        H632   1.085       .  S
C630        C633   1.445       .  S
C633        N635   1.158       .  T
C634        N636   1.157       .  T
C637        C638   1.404       .  A
C637        C642   1.413       .  A
C638        C639   1.400       .  A
C638        H643   1.085       .  S
C639        C640   1.410       .  A
C639        C646   1.445       .  S
C640        C641   1.402       .  A
C641        C642   1.404       .  A
C641        H644   1.085       .  S
C642        C645   1.442       .  S
C645        N647   1.157       .  T
C646        N648   1.157       .  T
C649        C650   1.416       .  A
C649        C654   1.423   1_554  A
C650        C651   1.412       .  A
C650        H655   1.084       .  S
C651        C652   1.412       .  A
C651        C658   1.443       .  S
C652        C653   1.402   1_554  A
C653        C654   1.400       .  A
C653        H656   1.086       .  S
C654        C657   1.438       .  S
C657        N659   1.156       .  T
C658        N660   1.158       .  T
C661        C662   1.412       .  A
C661        C666   1.415       .  A
C662        C663   1.404       .  A
C662        H667   1.084       .  S
C663        C664   1.408       .  A
C663        C670   1.443       .  S
C664        C665   1.408       .  A
C665        C666   1.392       .  A
C665        H668   1.086       .  S
C666        C669   1.447       .  S
C669        N671   1.158       .  T
C670        N672   1.157       .  T
C673        C674   1.402   1_554  A
C673        C678   1.411       .  A
C674        C675   1.401       .  A
C674        H679   1.085       .  S
C675        C676   1.410   1_556  A
C675        C682   1.435       .  S
C676        C677   1.409       .  A
C677        C678   1.411       .  A
C677        H680   1.085       .  S
C678        C681   1.442       .  S
C681        N683   1.157       .  T
C682        N684   1.154       .  T
C685        C686   1.398       .  A
C685        C690   1.413       .  A
C686        C687   1.395       .  A
C686        H691   1.084       .  S
C687        C688   1.429       .  A
C687        C694   1.448       .  S
C688        C689   1.397       .  A
C689        C690   1.398       .  A
C689        H692   1.074       .  S
C690        C693   1.444       .  S
C693        N695   1.157       .  T
C694        N696   1.158       .  T
C697        C698   1.405       .  A
C697        C702   1.426       .  A
C698        C699   1.387       .  A
C698        H703   1.085       .  S
C699        C700   1.411       .  A
C699        C706   1.445       .  S
C700        C701   1.400       .  A
C701        C702   1.406       .  A
C701        H704   1.085       .  S
C702        C705   1.442       .  S
C705        N707   1.157       .  T
C706        N708   1.158       .  T
C709        C710   1.404       .  A
C709        C714   1.412       .  A
C710        C711   1.399       .  A
C710        H715   1.085       .  S
C711        C712   1.409       .  A
C711        C718   1.445       .  S
C712        C713   1.400       .  A
C713        C714   1.399       .  A
C713        H716   1.085       .  S
C714        C717   1.444       .  S
C717        N719   1.157       .  T
C718        N720   1.157       .  T
C721        C722   1.404       .  A
C721        C726   1.406       .  A
C722        C723   1.393       .  A
C722        H727   1.086       .  S
C723        C724   1.410       .  A
C723        C730   1.443       .  S
C724        C725   1.409       .  A
C725        C726   1.401       .  A
C725        H728   1.085       .  S
C726        C729   1.443       .  S
C729        N731   1.157       .  T
C730        N732   1.157       .  T
C733        C734   1.403       .  A
C733        C738   1.429       .  A
C734        C735   1.402       .  A
C734        H739   1.084       .  S
C735        C736   1.423       .  A
C735        C742   1.445       .  S
C736        C737   1.395       .  A
C737        C738   1.393       .  A
C737        H740   1.085       .  S
C738        C741   1.443       .  S
C741        N743   1.157       .  T
C742        N744   1.158       .  T
C745        C746   1.409   1_655  A
C745        C750   1.412       .  A
C746        C747   1.404       .  A
C746        H751   1.085       .  S
C747        C748   1.409   1_455  A
C747        C754   1.443       .  S
C748        C749   1.402       .  A
C749        C750   1.393       .  A
C749        H752   1.084       .  S
C750        C753   1.443       .  S
C753        N755   1.156       .  T
C754        N756   1.157       .  T
C757        C758   1.398       .  A
C757        C762   1.417       .  A
C758        C759   1.394       .  A
C758        H763   1.085       .  S
C759        C760   1.419       .  A
C759        C766   1.446       .  S
C760        C761   1.403       .  A
C761        C762   1.401       .  A
C761        H764   1.084       .  S
C762        C765   1.443       .  S
C765        N767   1.157       .  T
C766        N768   1.157       .  T
C769        C770   1.401       .  A
C769        C774   1.408       .  A
C770        C771   1.396       .  A
C770        H775   1.086       .  S
C771        C772   1.410       .  A
C771        C778   1.445       .  S
C772        C773   1.407       .  A
C773        C774   1.407       .  A
C773        H776   1.084       .  S
C774        C777   1.442       .  S
C777        N779   1.157       .  T
C778        N780   1.157       .  T
C781        C782   1.395       .  A
C781        C786   1.423       .  A
C782        C783   1.390       .  A
C782        H787   1.082       .  S
C783        C784   1.423       .  A
C783        C790   1.443       .  S
C784        C785   1.404       .  A
C785        C786   1.404       .  A
C785        H788   1.084       .  S
C786        C789   1.444       .  S
C789        N791   1.158       .  T
C790        N792   1.157       .  T
C793        C794   1.404       .  A
C793        C798   1.411       .  A
C794        C795   1.408       .  A
C794        H799   1.083       .  S
C795        C796   1.412       .  A
C795        C802   1.443       .  S
C796        C797   1.400       .  A
C797        C798   1.398       .  A
C797        H800   1.085       .  S
C798        C801   1.441       .  S
C801        N803   1.156       .  T
C802        N804   1.157       .  T
C805        C806   1.413       .  A
C805        C810   1.409       .  A
C806        C807   1.402       .  A
C806        H811   1.086       .  S
C807        C808   1.416       .  A
C807        C814   1.446       .  S
C808        C809   1.419       .  A
C809        C810   1.417       .  A
C809        H812   1.084       .  S
C810        C813   1.441       .  S
C813        N815   1.157       .  T
C814        N816   1.158       .  T
C817        C818   1.401       .  A
C817        C822   1.415       .  A
C818        C819   1.389       .  A
C818        H823   1.085   1_655  S
C819        C820   1.405       .  A
C819        C826   1.436   1_655  S
C820        C821   1.402       .  A
C821        C822   1.407       .  A
C821        H824   1.084       .  S
C822        C825   1.442       .  S
C825        N827   1.157       .  T
C826        N828   1.153       .  T
C829        C830   1.681       .  A
C829        C834   1.771       .  A
C830        C831   2.573       .  A
C830        H835   1.080       .  S
C831        C832   1.641       .  A
C831        C838   1.471       .  S
C832        C833   1.746       .  A
C833        C834   1.779       .  A
C833        H836   1.081       .  S
C834        C837   1.440       .  S
C837        N839   1.157       .  T
C838        N840   1.143       .  T
C841        C842   1.398       .  A
C841        C846   1.415       .  A
C842        C843   1.401       .  A
C842        H847   1.085       .  S
C843        C844   1.416       .  A
C843        C850   1.444       .  S
C844        C845   1.395       .  A
C845        C846   1.395       .  A
C845        H848   1.085       .  S
C846        C849   1.443       .  S
C849        N851   1.156       .  T
C850        N852   1.157       .  T
C853        C854   1.401       .  A
C853        C858   1.422       .  A
C854        C855   1.394       .  A
C854        H859   1.085       .  S
C855        C856   1.419       .  A
C855        C862   1.445       .  S
C856        C857   1.403       .  A
C857        C858   1.407       .  A
C857        H860   1.085       .  S
C858        C861   1.444       .  S
C861        N863   1.157       .  T
C862        N864   1.157       .  T
C865        C866   1.401       .  A
C865        C870   1.406       .  A
C866        C867   1.399       .  A
C866        H871   1.085       .  S
C867        C868   1.413       .  A
C867        C874   1.445       .  S
C868        C869   1.406       .  A
C869        C870   1.397       .  A
C869        H872   1.085       .  S
C870        C873   1.445       .  S
C873        N875   1.157       .  T
C874        N876   1.157       .  T
C877        C878   1.400       .  A
C877        C882   1.415       .  A
C878        C879   1.401       .  A
C878        H883   1.085       .  S
C879        C880   1.416       .  A
C879        C886   1.444       .  S
C880        C881   1.400       .  A
C881        C882   1.402       .  A
C881        H884   1.085       .  S
C882        C885   1.445       .  S
C885        N887   1.157       .  T
C886        N888   1.157       .  T
C889        C890   1.411   1_655  A
C889        C894   1.416       .  A
C890        C891   1.405       .  A
C890        H895   1.084       .  S
C891        C892   1.409   1_455  A
C891        C898   1.443       .  S
C892        C893   1.403       .  A
C893        C894   1.397       .  A
C893        H896   1.086       .  S
C894        C897   1.444       .  S
C897        N899   1.157       .  T
C898        N900   1.157       .  T
C901        C902   1.393       .  A
C901        C906   1.413       .  A
C902        C903   1.390       .  A
C902        H907   1.076       .  S
C903        C904   1.411       .  A
C903        C910   1.445       .  S
C904        C905   1.400       .  A
C905        C906   1.402       .  A
C905        H908   1.084       .  S
C906        C909   1.442       .  S
C909        N911   1.156       .  T
C910        N912   1.157   1_545  T
C913        C914   1.404       .  A
C913        C918   1.408       .  A
C914        C915   1.410       .  A
C914        H919   1.084       .  S
C915        C916   1.415       .  A
C915        C922   1.442       .  S
C916        C917   1.400       .  A
C917        C918   1.398       .  A
C917        H920   1.085       .  S
C918        C921   1.436       .  S
C921        N923   1.154       .  T
C922        N924   1.157       .  T
C925        C926   1.400       .  A
C925        C930   1.410       .  A
C926        C927   1.396       .  A
C926        H931   1.085       .  S
C927        C928   1.409       .  A
C927        C934   1.444       .  S
C928        C929   1.401       .  A
C929        C930   1.397       .  A
C929        H932   1.085       .  S
C930        C933   1.443       .  S
C933        N935   1.157       .  T
C934        N936   1.157       .  T
C937        C938   1.400       .  A
C937        C942   1.413       .  A
C938        C939   1.395       .  A
C938        H943   1.085       .  S
C939        C940   1.414       .  A
C939        C946   1.444       .  S
C940        C941   1.405       .  A
C941        C942   1.404       .  A
C941        H944   1.084       .  S
C942        C945   1.444       .  S
C945        N947   1.157       .  T
C946        N948   1.157       .  T
C949        C950   1.395       .  A
C949        C954   1.416       .  A
C950        C951   1.407       .  A
C950        H955   1.085       .  S
C951        C952   1.440       .  A
C951        C958   1.445       .  S
C952        C953   1.410       .  A
C953        C954   1.405       .  A
C953        H956   1.076       .  S
C954        C957   1.438       .  S
C957        N959   1.155       .  T
C958        N960   1.158       .  T
C961        C962   1.403       .  A
C961        C966   1.413   1_655  A
C962        C963   1.407       .  A
C962        H967   1.084       .  S
C963        C964   1.414       .  A
C963        C970   1.443       .  S
C964        C965   1.402   1_655  A
C965        C966   1.393       .  A
C965        H968   1.086       .  S
C966        C969   1.446       .  S
C969        N971   1.157       .  T
C970        N972   1.157       .  T
C973        C974   1.396       .  A
C973        C978   1.417       .  A
C974        C975   1.397       .  A
C974        H979   1.085       .  S
C975        C976   1.423       .  A
C975        C982   1.442       .  S
C976        C977   1.407       .  A
C977        C978   1.400       .  A
C977        H980   1.081       .  S
C978        C981   1.444       .  S
C981        N983   1.158       .  T
C982        N984   1.156       .  T
C985        C986   1.404       .  A
C985        C990   1.412       .  A
C986        C987   1.396       .  A
C986        H991   1.085       .  S
C987        C988   1.411       .  A
C987        C994   1.445       .  S
C988        C989   1.401       .  A
C989        C990   1.396       .  A
C989        H992   1.085       .  S
C990        C993   1.443       .  S
C993        N995   1.157       .  T
C994        N996   1.157       .  T
C997        C998   1.399       .  A
C997       C1002   1.419       .  A
C998        C999   1.402       .  A
C998       H1003   1.085       .  S
C999       C1000   1.421       .  A
C999       C1006   1.443       .  S
C1000      C1001   1.400       .  A
C1001      C1002   1.396       .  A
C1001      H1004   1.085       .  S
C1002      C1005   1.447       .  S
C1005      N1007   1.158       .  T
C1006      N1008   1.157       .  T
C1009      C1010   1.400       .  A
C1009      C1014   1.407       .  A
C1010      C1011   1.398       .  A
C1010      H1015   1.085       .  S
C1011      C1012   1.414       .  A
C1011      C1018   1.442       .  S
C1012      C1013   1.407       .  A
C1013      C1014   1.398       .  A
C1013      H1016   1.085       .  S
C1014      C1017   1.445       .  S
C1017      N1019   1.157       .  T
C1018      N1020   1.156       .  T
C1021      C1022   1.405       .  A
C1021      C1026   1.413       .  A
C1022      C1023   1.397       .  A
C1022      H1027   1.085       .  S
C1023      C1024   1.409       .  A
C1023      C1030   1.440       .  S
C1024      C1025   1.403       .  A
C1025      C1026   1.396       .  A
C1025      H1028   1.084       .  S
C1026      C1029   1.444       .  S
C1029      N1031   1.157       .  T
C1030      N1032   1.156       .  T
C1033      C1034   1.411       .  A
C1033      C1038   1.414       .  A
C1034      C1035   1.404       .  A
C1034      H1039   1.084       .  S
C1035      C1036   1.410       .  A
C1035      C1042   1.443       .  S
C1036      C1037   1.407       .  A
C1037      C1038   1.397       .  A
C1037      H1040   1.085       .  S
C1038      C1041   1.442       .  S
C1041      N1043   1.156   1_455  T
C1042      N1044   1.157       .  T
C1045      C1046   1.403       .  A
C1045      C1050   1.410       .  A
C1046      C1047   1.401       .  A
C1046      H1051   1.085       .  S
C1047      C1048   1.409       .  A
C1047      C1054   1.443       .  S
C1048      C1049   1.402       .  A
C1049      C1050   1.399       .  A
C1049      H1052   1.085       .  S
C1050      C1053   1.444       .  S
C1053      N1055   1.157       .  T
C1054      N1056   1.157       .  T
C1057      C1058   1.398       .  A
C1057      C1062   1.407       .  A
C1058      C1059   1.394       .  A
C1058      H1063   1.085       .  S
C1059      C1060   1.412       .  A
C1059      C1066   1.444       .  S
C1060      C1061   1.404       .  A
C1061      C1062   1.396       .  A
C1061      H1064   1.085       .  S
C1062      C1065   1.445       .  S
C1065      N1067   1.157       .  T
C1066      N1068   1.157       .  T
C1069      C1070   1.406       .  A
C1069      C1074   1.414       .  A
C1070      C1071   1.409       .  A
C1070      H1075   1.085       .  S
C1071      C1072   1.421       .  A
C1071      C1078   1.444       .  S
C1072      C1073   1.408       .  A
C1073      C1074   1.397       .  A
C1073      H1076   1.083       .  S
C1074      C1077   1.443       .  S
C1077      N1079   1.157       .  T
C1078      N1080   1.157       .  T
C1081      C1082   1.404       .  A
C1081      C1086   1.411       .  A
C1082      C1083   1.400       .  A
C1082      H1087   1.085       .  S
C1083      C1084   1.409       .  A
C1083      C1090   1.441       .  S
C1084      C1085   1.402       .  A
C1085      C1086   1.404       .  A
C1085      H1088   1.083       .  S
C1086      C1089   1.443       .  S
C1089      N1091   1.157       .  T
C1090      N1092   1.156       .  T
C1093      C1094   1.406   1_554  A
C1093      C1098   1.425       .  A
C1094      C1095   1.406       .  A
C1094      H1099   1.084       .  S
C1095      C1096   1.419   1_556  A
C1095      C1102   1.444       .  S
C1096      C1097   1.401       .  A
C1097      C1098   1.398       .  A
C1097      H1100   1.085       .  S
C1098      C1101   1.445       .  S
C1101      N1103   1.157       .  T
C1102      N1104   1.157       .  T
C1105      C1106   1.399       .  A
C1105      C1110   1.410       .  A
C1106      C1107   1.395       .  A
C1106      H1111   1.085       .  S
C1107      C1108   1.416       .  A
C1107      C1114   1.442       .  S
C1108      C1109   1.393       .  A
C1109      C1110   1.384       .  A
C1109      H1112   1.086       .  S
C1110      C1113   1.432       .  S
C1113      N1115   1.153   1_455  T
C1114      N1116   1.156       .  T
C1117      C1118   1.410       .  A
C1117      C1122   1.426       .  A
C1118      C1119   1.416       .  A
C1118      H1123   1.084       .  S
C1119      C1120   1.424       .  A
C1119      C1126   1.442   1_455  S
C1120      C1121   1.411       .  A
C1121      C1122   1.420       .  A
C1121      H1124   1.084       .  S
C1122      C1125   1.440       .  S
C1125      N1127   1.156       .  T
C1126      N1128   1.157       .  T
C1129      C1130   1.399       .  A
C1129      C1134   1.416       .  A
C1130      C1131   1.398       .  A
C1130      H1135   1.085       .  S
C1131      C1132   1.429       .  A
C1131      C1138   1.441       .  S
C1132      C1133   1.412       .  A
C1133      C1134   1.404       .  A
C1133      H1136   1.083       .  S
C1134      C1137   1.444       .  S
C1137      N1139   1.158       .  T
C1138      N1140   1.158       .  T
C1141      C1142   1.405       .  A
C1141      C1146   1.406       .  A
C1142      C1143   1.400       .  A
C1142      H1147   1.085       .  S
C1143      C1144   1.418       .  A
C1143      C1150   1.444       .  S
C1144      C1145   1.409       .  A
C1145      C1146   1.392       .  A
C1145      H1148   1.085       .  S
C1146      C1149   1.442       .  S
C1149      N1151   1.157       .  T
C1150      N1152   1.158       .  T
C1153      C1154   1.406   1_554  A
C1153      C1158   1.421       .  A
C1154      C1155   1.415       .  A
C1154      H1159   1.080       .  S
C1155      C1156   1.425   1_556  A
C1155      C1162   1.443       .  S
C1156      C1157   1.407       .  A
C1157      C1158   1.403       .  A
C1157      H1160   1.083       .  S
C1158      C1161   1.442       .  S
C1161      N1163   1.156       .  T
C1162      N1164   1.157       .  T
C1165      C1166   1.402       .  A
C1165      C1170   1.413       .  A
C1166      C1167   1.402       .  A
C1166      H1171   1.085       .  S
C1167      C1168   1.413       .  A
C1167      C1174   1.444       .  S
C1168      C1169   1.401       .  A
C1169      C1170   1.403       .  A
C1169      H1172   1.085       .  S
C1170      C1173   1.444       .  S
C1173      N1175   1.157       .  T
C1174      N1176   1.157       .  T
C1177      C1178   1.407       .  A
C1177      C1182   1.423       .  A
C1178      C1179   1.405       .  A
C1178      H1183   1.084       .  S
C1179      C1180   1.417       .  A
C1179      C1186   1.444       .  S
C1180      C1181   1.398       .  A
C1181      C1182   1.390       .  A
C1181      H1184   1.086       .  S
C1182      C1185   1.445   1_545  S
C1185      N1187   1.157       .  T
C1186      N1188   1.157       .  T
C1189      C1190   1.413       .  A
C1189      C1194   1.409       .  A
C1190      C1191   1.408       .  A
C1190      H1195   1.085       .  S
C1191      C1192   1.408       .  A
C1191      C1198   1.443       .  S
C1192      C1193   1.405       .  A
C1193      C1194   1.392       .  A
C1193      H1196   1.086       .  S
C1194      C1197   1.440       .  S
C1197      N1199   1.155       .  T
C1198      N1200   1.157       .  T
C1201      C1202   1.398       .  A
C1201      C1206   1.409       .  A
C1202      C1203   1.396       .  A
C1202      H1207   1.078       .  S
C1203      C1204   1.412       .  A
C1203      C1210   1.445       .  S
C1204      C1205   1.403       .  A
C1205      C1206   1.400       .  A
C1205      H1208   1.085       .  S
C1206      C1209   1.443       .  S
C1209      N1211   1.157   1_455  T
C1210      N1212   1.157       .  T
C1213      C1214   1.404       .  A
C1213      C1218   1.421       .  A
C1214      C1215   1.405       .  A
C1214      H1219   1.083       .  S
C1215      C1216   1.416       .  A
C1215      C1222   1.437       .  S
C1216      C1217   1.400       .  A
C1217      C1218   1.397       .  A
C1217      H1220   1.084       .  S
C1218      C1221   1.447       .  S
C1221      N1223   1.157       .  T
C1222      N1224   1.155       .  T
C1225      C1226   1.406       .  A
C1225      C1230   1.412       .  A
C1226      C1227   1.400       .  A
C1226      H1231   1.085       .  S
C1227      C1228   1.410       .  A
C1227      C1234   1.443       .  S
C1228      C1229   1.404       .  A
C1229      C1230   1.394       .  A
C1229      H1232   1.085       .  S
C1230      C1233   1.443       .  S
C1233      N1235   1.157   1_554  T
C1234      N1236   1.157       .  T
C1237      C1238   1.407       .  A
C1237      C1242   1.408       .  A
C1238      C1239   1.399       .  A
C1238      H1243   1.085       .  S
C1239      C1240   1.406       .  A
C1239      C1246   1.441       .  S
C1240      C1241   1.400       .  A
C1241      C1242   1.394       .  A
C1241      H1244   1.083       .  S
C1242      C1245   1.441       .  S
C1245      N1247   1.156       .  T
C1246      N1248   1.156       .  T
C1249      C1250   1.400       .  A
C1249      C1254   1.416       .  A
C1250      C1251   1.397       .  A
C1250      H1255   1.085       .  S
C1251      C1252   1.414       .  A
C1251      C1258   1.445       .  S
C1252      C1253   1.400       .  A
C1253      C1254   1.402       .  A
C1253      H1256   1.085       .  S
C1254      C1257   1.445       .  S
C1257      N1259   1.157       .  T
C1258      N1260   1.157       .  T
C1261      C1262   1.413       .  A
C1261      C1266   1.414       .  A
C1262      C1263   1.407       .  A
C1262      H1267   1.084       .  S
C1263      C1264   1.410       .  A
C1263      C1270   1.443       .  S
C1264      C1265   1.408       .  A
C1265      C1266   1.395       .  A
C1265      H1268   1.086       .  S
C1266      C1269   1.445       .  S
C1269      N1271   1.158       .  T
C1270      N1272   1.157       .  T
C1273      C1274   1.399       .  A
C1273      C1278   1.420       .  A
C1274      C1275   1.400       .  A
C1274      H1279   1.085       .  S
C1275      C1276   1.424       .  A
C1275      C1282   1.445       .  S
C1276      C1277   1.400       .  A
C1277      C1278   1.399       .  A
C1277      H1280   1.085       .  S
C1278      C1281   1.445       .  S
C1281      N1283   1.157       .  T
C1282      N1284   1.158       .  T
C1285      C1286   1.398       .  A
C1285      C1290   1.413       .  A
C1286      C1287   1.392       .  A
C1286      H1291   1.086       .  S
C1287      C1288   1.409       .  A
C1287      C1294   1.436       .  S
C1288      C1289   1.407       .  A
C1289      C1290   1.413       .  A
C1289      H1292   1.083       .  S
C1290      C1293   1.442       .  S
C1293      N1295   1.157       .  T
C1294      N1296   1.153       .  T
C1297      C1298   1.402       .  A
C1297      C1302   1.412       .  A
C1298      C1299   1.399       .  A
C1298      H1303   1.085       .  S
C1299      C1300   1.409       .  A
C1299      C1306   1.443       .  S
C1300      C1301   1.399       .  A
C1301      C1302   1.398       .  A
C1301      H1304   1.085       .  S
C1302      C1305   1.445       .  S
C1305      N1307   1.157       .  T
C1306      N1308   1.157       .  T
C1309      C1310   1.398       .  A
C1309      C1314   1.413       .  A
C1310      C1311   1.398       .  A
C1310      H1315   1.085       .  S
C1311      C1312   1.414       .  A
C1311      C1318   1.445       .  S
C1312      C1313   1.402       .  A
C1313      C1314   1.403       .  A
C1313      H1316   1.084       .  S
C1314      C1317   1.443       .  S
C1317      N1319   1.157       .  T
C1318      N1320   1.157       .  T
C1321      C1322   1.404       .  A
C1321      C1326   1.420       .  A
C1322      C1323   1.398       .  A
C1322      H1327   1.084       .  S
C1323      C1324   1.419       .  A
C1323      C1330   1.443       .  S
C1324      C1325   1.404       .  A
C1325      C1326   1.406       .  A
C1325      H1328   1.085   1_565  S
C1326      C1329   1.444   1_565  S
C1329      N1331   1.157       .  T
C1330      N1332   1.157       .  T
C1333      C1334   1.405       .  A
C1333      C1338   1.422       .  A
C1334      C1335   1.403       .  A
C1334      H1339   1.083       .  S
C1335      C1336   1.419       .  A
C1335      C1342   1.442       .  S
C1336      C1337   1.398       .  A
C1337      C1338   1.400       .  A
C1337      H1340   1.085       .  S
C1338      C1341   1.444       .  S
C1341      N1343   1.157       .  T
C1342      N1344   1.157       .  T
C1345      C1346   1.401       .  A
C1345      C1350   1.416       .  A
C1346      C1347   1.404       .  A
C1346      H1351   1.085       .  S
C1347      C1348   1.415       .  A
C1347      C1354   1.436       .  S
C1348      C1349   1.400       .  A
C1349      C1350   1.402       .  A
C1349      H1352   1.085       .  S
C1350      C1353   1.442       .  S
C1353      N1355   1.157       .  T
C1354      N1356   1.154       .  T
C1357      C1358   1.406       .  A
C1357      C1362   1.409       .  A
C1358      C1359   1.408       .  A
C1358      H1363   1.084       .  S
C1359      C1360   1.413       .  A
C1359      C1366   1.440       .  S
C1360      C1361   1.401       .  A
C1361      C1362   1.396       .  A
C1361      H1364   1.084       .  S
C1362      C1365   1.442       .  S
C1365      N1367   1.156       .  T
C1366      N1368   1.157       .  T
C1369      C1370   1.397       .  A
C1369      C1374   1.412       .  A
C1370      C1371   1.396       .  A
C1370      H1375   1.082       .  S
C1371      C1372   1.415       .  A
C1371      C1378   1.445       .  S
C1372      C1373   1.402       .  A
C1373      C1374   1.400       .  A
C1373      H1376   1.085       .  S
C1374      C1377   1.442       .  S
C1377      N1379   1.156       .  T
C1378      N1380   1.157       .  T
C1381      C1382   1.403       .  A
C1381      C1386   1.413       .  A
C1382      C1383   1.394       .  A
C1382      H1387   1.082       .  S
C1383      C1384   1.403       .  A
C1383      C1390   1.439       .  S
C1384      C1385   1.401       .  A
C1385      C1386   1.399       .  A
C1385      H1388   1.080       .  S
C1386      C1389   1.445       .  S
C1389      N1391   1.157       .  T
C1390      N1392   1.155       .  T
C1393      C1394   1.409       .  A
C1393      C1398   1.423       .  A
C1394      C1395   1.405       .  A
C1394      H1399   1.084       .  S
C1395      C1396   1.416       .  A
C1395      C1402   1.444       .  S
C1396      C1397   1.402       .  A
C1397      C1398   1.405       .  A
C1397      H1400   1.084   1_565  S
C1398      C1401   1.444   1_565  S
C1401      N1403   1.158       .  T
C1402      N1404   1.157       .  T
