geometry optimzed in LAMMPS
_audit_creation_date              2020-11-30 
_audit_creation_method            'lammps2cif' 
_symmetry_space_group_name_H-M    'P1' 
_symmetry_Int_Tables_number       1 
_symmetry_cell_setting            triclinic 
loop_ 
_symmetry_equiv_pos_as_xyz 
  x,y,z 
_cell_length_a                    47.49571513082444 
_cell_length_b                    47.49681534149861 
_cell_length_c                    47.48188233789463 
_cell_angle_alpha                 89.98219905342809 
_cell_angle_beta                  89.86993112518776 
_cell_angle_gamma                 90.04060534606297 
loop_ 
_atom_site_label 
_atom_site_type_symbol 
_atom_site_fract_x 
_atom_site_fract_y 
_atom_site_fract_z 
_atom_site_charge 
Fe1        Fe  0.84937730  0.76520951  0.26580135     1.65780
Fe2        Fe  0.90721910  0.74149230  0.30004867     1.73250
Fe3        Fe  0.90955351  0.80402811  0.26336606     1.54410
O4          O  0.89695860  0.79769396  0.22086135    -0.79350
O5          O  0.91717979  0.77119189  0.32841657    -0.77650
O6          O  0.85779926  0.77136504  0.22410153    -0.81850
O7          O  0.83730075  0.80623341  0.27132978    -0.76710
O8          O  0.94736519  0.78142749  0.25437100    -0.78480
O9          O  0.87242080  0.73382204  0.32419514    -0.81230
C10         C  0.84926759  0.82978100  0.27373509     0.99540
C11         C  0.87627467  0.78426485  0.20977987     1.06980
O12         O  0.88897155  0.77028643  0.27596860    -1.10210
O13         O  0.89787159  0.70961132  0.27331000    -0.72640
O14         O  0.85499847  0.72275425  0.25934161    -0.76130
O15         O  0.87585288  0.83248227  0.27107619    -0.76820
C16         C  0.87471109  0.70489370  0.26136641     0.98440
O17         O  0.83773544  0.75969699  0.30662803    -0.74770
O18         O  0.94561794  0.74331774  0.28133090    -0.79970
C19         C  0.92122366  0.79739190  0.32772004     1.01070
C20         C  0.95826161  0.75875241  0.26396122     1.06980
O21         O  0.92152083  0.81221641  0.30520120    -0.75610
C22         C  0.84848425  0.74501701  0.32587816     1.05280
Fe23       Fe  0.97353585  0.88831420  0.46697013     1.65780
Fe24       Fe  0.99886132  0.83129251  0.43278259     1.73250
Fe25       Fe  0.93733544  0.82685733  0.47068459     1.54420
O26         O  0.94331252  0.84052500  0.51293200    -0.79350
O27         O  0.96909589  0.82209110  0.40430022    -0.77650
O28         O  0.96839849  0.88037133  0.50892624    -0.81850
O29         O  0.93195961  0.89859845  0.46196628    -0.76710
O30         O  0.96173768  0.79075682  0.48040189    -0.78480
O31         O  0.00683597  0.86687148  0.40963270    -0.81230
C32         C  0.90902549  0.88543483  0.45966021     0.99540
C33         C  0.95617302  0.86175846  0.52363759     1.06980
O34         O  0.96985947  0.84857566  0.45729286    -1.10210
O35         O  0.02996947  0.84048638  0.46026092    -0.72640
O36         O  0.01618284  0.88376022  0.47274901    -0.76130
O37         O  0.90752398  0.85884167  0.46255156    -0.76820
C38         C  0.03414710  0.86401885  0.47173434     0.98440
O39         O  0.97791979  0.89966123  0.42593970    -0.74770
O40         O  0.99741838  0.79212295  0.45027276    -0.79970
C41         C  0.94322403  0.81635544  0.40589479     1.01070
C42         C  0.98368498  0.77989100  0.46934466     1.06980
O43         O  0.92942452  0.81391450  0.42900039    -0.75610
C44         C  0.99419260  0.89004040  0.40737300     1.05280
Fe45       Fe  0.47590319  0.96982489  0.88714270     1.65780
Fe46       Fe  0.44108950  0.99532350  0.83039501     1.73250
Fe47       Fe  0.47795744  0.93303005  0.82585291     1.54420
O48         O  0.52083266  0.93946576  0.83804633    -0.79350
O49         O  0.41230854  0.96566181  0.82075242    -0.77650
O50         O  0.51755913  0.96369991  0.87852828    -0.81850
O51         O  0.47015693  0.92855197  0.89821057    -0.76710
O52         O  0.48558193  0.95638629  0.78805179    -0.78480
O53         O  0.41789737  0.00274077  0.86587565    -0.81230
C54         C  0.46817776  0.90533319  0.88558566     0.99540
C55         C  0.53194589  0.95173617  0.85950715     1.06980
O56         O  0.46550473  0.96606615  0.84747360    -1.10210
O57         O  0.46847030  0.02681476  0.83989786    -0.72640
O58         O  0.48250796  0.01231270  0.88240021    -0.76130
O59         O  0.47117819  0.90348495  0.85894517    -0.76820
C60         C  0.48060252  0.03073719  0.86317510     0.98440
O61         O  0.43522017  0.97502871  0.89917310    -0.74770
O62         O  0.45829208  0.99412166  0.79121396    -0.79970
C63         C  0.41311493  0.93951431  0.81611119     1.01070
C64         C  0.47506594  0.97888216  0.77760130     1.06980
O65         O  0.43579106  0.92495272  0.81474259    -0.75610
C66         C  0.41615473  0.99046053  0.88926995     1.05280
Fe67       Fe  0.27221284  0.84446904  0.76547399     1.65780
Fe68       Fe  0.30771327  0.90155378  0.74071269     1.73250
Fe69       Fe  0.27013133  0.90562544  0.80269783     1.54410
O70         O  0.22748085  0.89284742  0.79684279    -0.79350
O71         O  0.33587326  0.91219248  0.77039565    -0.77650
O72         O  0.23062152  0.85291812  0.77190639    -0.81850
O73         O  0.27810683  0.83328950  0.80662104    -0.76710
O74         O  0.26123855  0.94273912  0.77862336    -0.78480
O75         O  0.33173725  0.86639479  0.73421897    -0.81230
C76         C  0.28045806  0.84577636  0.82989022     0.99540
C77         C  0.21630895  0.87166635  0.78427663     1.06980
O78         O  0.28299230  0.88410185  0.76967387    -1.10210
O79         O  0.28120238  0.89160151  0.70890175    -0.72640
O80         O  0.26522067  0.84970294  0.72320801    -0.76130
O81         O  0.27774542  0.87245094  0.83202159    -0.76820
C82         C  0.26789544  0.86901943  0.70499342     0.98440
O83         O  0.31267449  0.83205221  0.75960956    -0.74770
O84         O  0.28919567  0.94020341  0.74121308    -0.79970
C85         C  0.33475716  0.91730261  0.79640026     1.01070
C86         C  0.27127476  0.95312364  0.75579615     1.06980
O87         O  0.31195507  0.91808026  0.81082841    -0.75610
C88         C  0.33248450  0.84233437  0.74529461     1.05280
Fe89       Fe  0.27035607  0.14110388  0.71669081     1.65780
Fe90       Fe  0.30679891  0.08363407  0.73847090     1.73250
Fe91       Fe  0.26740890  0.08108975  0.67765564     1.54420
O92         O  0.22516641  0.09251124  0.68534467    -0.79350
O93         O  0.33372711  0.07487059  0.70724872    -0.77650
O94         O  0.22870858  0.13254213  0.71006967    -0.81850
O95         O  0.27644829  0.15346949  0.67591902    -0.76710
O96         O  0.25993324  0.04295823  0.70063731    -0.78480
O97         O  0.33099536  0.11845434  0.74541071    -0.81230
C98         C  0.27759798  0.14161159  0.65222675     0.99540
C99         C  0.21427503  0.11361327  0.69806728     1.06980
O100        O  0.28107215  0.10172924  0.71099632    -1.10210
O101        O  0.28147231  0.09236389  0.77161391    -0.72640
O102        O  0.26368509  0.13405584  0.75881103    -0.76130
O103        O  0.27356666  0.11521529  0.64930238    -0.76820
C104        C  0.26764226  0.11444395  0.77649510     0.98440
O105        O  0.31077741  0.15389811  0.72280519    -0.74770
O106        O  0.28858038  0.04492786  0.73738740    -0.79970
C107        C  0.33182629  0.07197806  0.68098317     1.01070
C108        C  0.27053723  0.03214540  0.72293712     1.06980
O109        O  0.30875853  0.07053578  0.66736366    -0.75610
C110        C  0.33117776  0.14307073  0.73572526     1.05280
Fe111      Fe  0.46937621  0.01783992  0.58958478     1.65780
Fe112      Fe  0.43197111  0.99612031  0.64678091     1.73250
Fe113      Fe  0.47295427  0.05597356  0.65019148     1.54420
O114        O  0.51497883  0.04752160  0.63839130    -0.79350
O115        O  0.40641997  0.02766204  0.65789401    -0.77650
O116        O  0.51116510  0.02255112  0.59856595    -0.81850
O117        O  0.46497115  0.05874402  0.57824564    -0.76710
O118        O  0.48021809  0.03230575  0.68746644    -0.78480
O119        O  0.40668403  0.99235817  0.61195743    -0.81230
C120        C  0.46343544  0.08210786  0.59054379     0.99540
C121        C  0.52574155  0.03413809  0.61762247     1.06980
O122        O  0.45845634  0.02322493  0.62905479    -1.10210
O123        O  0.45536015  0.96211440  0.63607011    -0.72640
O124        O  0.47444631  0.97560697  0.59520063    -0.76130
O125        O  0.46696866  0.08478488  0.61693853    -0.76820
C126        C  0.46951613  0.95751256  0.61410997     0.98440
O127        O  0.42889136  0.01354738  0.57659533    -0.74770
O128        O  0.45192164  0.99513979  0.68496718    -0.79970
C129        C  0.40878917  0.05382589  0.66103527     1.01070
C130        C  0.47017103  0.00953630  0.69774477     1.06980
O131        O  0.43206583  0.06713659  0.66152942    -0.75610
C132        C  0.40746065  0.00218136  0.58730489     1.05280
Fe133      Fe  0.72285943  0.26377118  0.14157783     1.65780
Fe134      Fe  0.74721174  0.29902551  0.08447566     1.73250
Fe135      Fe  0.68472980  0.26247218  0.08108142     1.54410
O136        O  0.69040504  0.21973822  0.09345309    -0.79350
O137        O  0.71768633  0.32785735  0.07532797    -0.77650
O138        O  0.71660340  0.22225648  0.13267412    -0.81850
O139        O  0.68179806  0.26918426  0.15330371    -0.76710
O140        O  0.70790567  0.25368354  0.04351470    -0.78480
O141        O  0.75499247  0.32218747  0.11985280    -0.81230
C142        C  0.65847312  0.27206356  0.14110325     0.99540
C143        C  0.70349829  0.20828470  0.11415533     1.06980
O144        O  0.71823389  0.27461247  0.10211714    -1.10210
O145        O  0.77876705  0.27179047  0.09332409    -0.72640
O146        O  0.76530614  0.25738094  0.13607414    -0.76130
O147        O  0.65602291  0.26997261  0.11448217    -0.76820
C148        C  0.78327437  0.25956766  0.11640967     0.98440
O149        O  0.72827102  0.30433167  0.15384488    -0.74770
O150        O  0.74550051  0.28131776  0.04554294    -0.79970
C151        C  0.69153720  0.32720438  0.07101772     1.01070
C152        C  0.73052322  0.26368270  0.03276513     1.06980
O153        O  0.67687942  0.30460324  0.06963317    -0.75610
C154        C  0.74337030  0.32357808  0.14363682     1.05280
Fe155      Fe  0.60021603  0.46777271  0.01924336     1.65780
Fe156      Fe  0.65759365  0.43281792  0.99531210     1.73250
Fe157      Fe  0.66082988  0.47048252  0.05717885     1.54420
O158        O  0.64818957  0.51297000  0.05045151    -0.79350
O159        O  0.66742415  0.40477376  0.02540761    -0.77650
O160        O  0.60879524  0.50947132  0.02467120    -0.81850
O161        O  0.58875051  0.46264581  0.06048603    -0.76710
O162        O  0.69820571  0.47920009  0.03391142    -0.78480
O163        O  0.62250732  0.40888039  0.98828120    -0.81230
C164        C  0.60108085  0.46013459  0.08380314     0.99540
C165        C  0.62742939  0.52392597  0.03706033     1.06980
O166        O  0.63980913  0.45747415  0.02392487    -1.10210
O167        O  0.64812602  0.45924566  0.96313230    -0.72640
O168        O  0.60543363  0.47367012  0.97663547    -0.76130
O169        O  0.62764012  0.46294076  0.08613799    -0.76820
C170        C  0.62496261  0.47129215  0.95854745     0.98440
O171        O  0.58826290  0.42701512  0.01444800    -0.74770
O172        O  0.69621337  0.45123864  0.99655378    -0.79970
C173        C  0.67184087  0.40589696  0.05153356     1.01070
C174        C  0.70892987  0.46902950  0.01140550     1.06980
O175        O  0.67284146  0.42871544  0.06584917    -0.75610
C176        C  0.59865749  0.40754043  0.99979807     1.05280
Fe177      Fe  0.14592357  0.71916531  0.26540831     1.65780
Fe178      Fe  0.08893160  0.74361814  0.30107913     1.73250
Fe179      Fe  0.08515150  0.68147077  0.26395112     1.54420
O180        O  0.09750830  0.68752632  0.22130553    -0.79350
O181        O  0.07867831  0.71386210  0.32951350    -0.77650
O182        O  0.13692921  0.71345005  0.22387863    -0.81850
O183        O  0.15734571  0.67801646  0.27052394    -0.76710
O184        O  0.04798375  0.70502812  0.25520478    -0.78480
O185        O  0.12417913  0.75015038  0.32482447    -0.81230
C186        C  0.14497772  0.65474166  0.27338666     0.99540
C187        C  0.11819280  0.70071109  0.20988288     1.06980
O188        O  0.10642045  0.71474146  0.27639782    -1.10210
O189        O  0.09868510  0.77556427  0.27445721    -0.72640
O190        O  0.14089827  0.76153237  0.25919278    -0.76130
O191        O  0.11832338  0.65247212  0.27133916    -0.76820
C192        C  0.12156667  0.77969940  0.26167579     0.98440
O193        O  0.15817444  0.72415674  0.30592684    -0.74770
O194        O  0.05031997  0.74279878  0.28259228    -0.79970
C195        C  0.07434567  0.68770433  0.32864089     1.01070
C196        C  0.03754704  0.72788493  0.26487751     1.06980
O197        O  0.07339548  0.67323877  0.30592201    -0.75610
C198        C  0.14792056  0.73843991  0.32574280     1.05280
Fe199      Fe  0.02339150  0.59231490  0.46867439     1.65780
Fe200      Fe  0.99887221  0.64966274  0.43425850     1.73250
Fe201      Fe  0.06079848  0.65333054  0.47159192     1.54410
O202        O  0.05448776  0.64000168  0.51408904    -0.79350
O203        O  0.02867050  0.65994498  0.40592855    -0.77650
O204        O  0.02870557  0.60055538  0.51051065    -0.81850
O205        O  0.06472973  0.58143345  0.46351539    -0.76710
O206        O  0.03732151  0.69024832  0.48085937    -0.78480
O207        O  0.99173510  0.61456882  0.41034216    -0.81230
C208        C  0.08788707  0.59409942  0.46085708     0.99540
C209        C  0.04119998  0.61907769  0.52504109     1.06980
O210        O  0.02772278  0.63202992  0.45861459    -1.10210
O211        O  0.96703720  0.63982570  0.46107177    -0.72640
O212        O  0.98074892  0.59695240  0.47463437    -0.76130
O213        O  0.08996571  0.62067531  0.46350934    -0.76820
C214        C  0.96260221  0.61642046  0.47276656     0.98440
O215        O  0.01873861  0.58070522  0.42777469    -0.74770
O216        O  0.00016768  0.68826973  0.45269295    -0.79970
C217        C  0.05464541  0.66523027  0.40702026     1.01070
C218        C  0.01492780  0.70094892  0.47058541     1.06980
O219        O  0.06899624  0.66617312  0.42982627    -0.75610
C220        C  0.00359116  0.59094274  0.40863200     1.05280
Fe221      Fe  0.89662899  0.46603368  0.97183256     1.65780
Fe222      Fe  0.83910746  0.43114774  0.99623282     1.73250
Fe223      Fe  0.83594607  0.46863317  0.93419890     1.54420
O224        O  0.84864889  0.51102526  0.94038984    -0.79350
O225        O  0.82892956  0.40299584  0.96628581    -0.77650
O226        O  0.88831748  0.50775480  0.96570134    -0.81850
O227        O  0.90804978  0.46026500  0.93064083    -0.76710
O228        O  0.79883101  0.47769229  0.95768239    -0.78480
O229        O  0.87400975  0.40701649  0.00319585    -0.81230
C230        C  0.89560779  0.45806373  0.90733959     0.99540
C231        C  0.86962486  0.52209333  0.95327095     1.06980
O232        O  0.85700132  0.45567784  0.96742190    -1.10210
O233        O  0.84890209  0.45762512  0.02822310    -0.72640
O234        O  0.89126193  0.47265189  0.01416250    -0.76130
O235        O  0.86904533  0.46101334  0.90514810    -0.76820
C236        C  0.87185048  0.47025355  0.03234623     0.98440
O237        O  0.90848520  0.42537820  0.97741366    -0.74770
O238        O  0.80063939  0.44991314  0.99519801    -0.79970
C239        C  0.82461708  0.40417696  0.94013444     1.01070
C240        C  0.78813545  0.46786792  0.98036196     1.06980
O241        O  0.82377313  0.42697991  0.92583081    -0.75610
C242        C  0.89797113  0.40583477  0.99192185     1.05280
Fe243      Fe  0.77062531  0.26439933  0.84510232     1.65780
Fe244      Fe  0.74745568  0.30072377  0.90235307     1.73250
Fe245      Fe  0.80878141  0.26212084  0.90564509     1.54420
O246        O  0.80233490  0.21965453  0.89321350    -0.79350
O247        O  0.77786547  0.32820063  0.91261716    -0.77650
O248        O  0.77687332  0.22277868  0.85369375    -0.81850
O249        O  0.81160845  0.27002528  0.83327166    -0.76710
O250        O  0.78506263  0.25356059  0.94298529    -0.78480
O251        O  0.74119871  0.32496422  0.86732966    -0.81230
C252        C  0.83506747  0.27210806  0.84540348     0.99540
C253        C  0.78945565  0.20849744  0.87229717     1.06980
O254        O  0.77563882  0.27540430  0.88456587    -1.10210
O255        O  0.71477913  0.27509177  0.89280458    -0.72640
O256        O  0.72848580  0.25779545  0.85121739    -0.76130
O257        O  0.83761040  0.26934576  0.87202291    -0.76820
C258        C  0.71043298  0.26141855  0.87053548     0.98440
O259        O  0.76476235  0.30478485  0.83232650    -0.74770
O260        O  0.74804775  0.28198902  0.94088548    -0.79970
C261        C  0.80387030  0.32660850  0.91739165     1.01070
C262        C  0.76250688  0.26386202  0.95359070     1.06980
O263        O  0.81784468  0.30362092  0.91797180    -0.75610
C264        C  0.75138594  0.32509179  0.84285032     1.05280
Fe265      Fe  0.72571976  0.76260143  0.84549534     1.65780
Fe266      Fe  0.74757387  0.79904467  0.90295162     1.73250
Fe267      Fe  0.68659678  0.76170254  0.90444558     1.54410
O268        O  0.65966506  0.76386409  0.86882887    -0.79350
O269        O  0.75290663  0.77231527  0.93598413    -0.77650
O270        O  0.68701242  0.77683792  0.83301617    -0.81850
O271        O  0.71099974  0.72232260  0.85171725    -0.76710
O272        O  0.67621686  0.80445006  0.91039894    -0.78480
O273        O  0.78168030  0.78011912  0.88443092    -0.81230
C274        C  0.70366215  0.70749112  0.87265495     0.99540
C275        C  0.66293676  0.77293152  0.84369419     1.06980
O276        O  0.72015143  0.77402527  0.88441441    -1.10210
O277        O  0.74457642  0.82835893  0.87184056    -0.72640
O278        O  0.74132947  0.80110156  0.83377859    -0.76130
O279        O  0.69588440  0.71850231  0.89615385    -0.76820
C280        C  0.74451834  0.82476186  0.84558123     0.98440
O281        O  0.76473047  0.74766107  0.85499289    -0.74770
O282        O  0.71748063  0.82163524  0.92402547    -0.79970
C283        C  0.73437781  0.76155426  0.95170392     1.01070
C284        C  0.69191183  0.82500709  0.91768325     1.06980
O285        O  0.70868156  0.75854929  0.94377800    -0.75610
C286        C  0.78456070  0.75886472  0.86870684     1.05280
Fe287      Fe  0.60192776  0.96949033  0.96641089     1.65780
Fe288      Fe  0.65919590  0.93254047  0.98916254     1.73250
Fe289      Fe  0.66207390  0.97070307  0.92816353     1.54420
O290        O  0.62725028  0.96820177  0.90015510    -0.79350
O291        O  0.69380907  0.95734724  0.99384803    -0.77650
O292        O  0.59007584  0.95765773  0.92663502    -0.81850
O293        O  0.60927205  0.01023763  0.95425336    -0.76710
O294        O  0.66962601  0.92821464  0.91740145    -0.78480
O295        O  0.64236293  0.95284962  0.02314623    -0.81230
C296        C  0.63005210  0.02489720  0.94627642     0.99540
C297        C  0.60157070  0.96061838  0.90281140     1.06980
O298        O  0.64116743  0.95786603  0.96139112    -1.10210
O299        O  0.62701762  0.90419653  0.98793663    -0.72640
O300        O  0.58920089  0.93051937  0.97935234    -0.76130
O301        O  0.65314382  0.01382221  0.93747006    -0.76820
C302        C  0.60086417  0.90738066  0.98524689     0.98440
O303        O  0.60955522  0.98220788  0.00678401    -0.74770
O304        O  0.67811311  0.90835346  0.95913749    -0.79970
C305        C  0.70920050  0.96954023  0.97598803     1.01070
C306        C  0.67543176  0.90687104  0.93274963     1.06980
O307        O  0.70096517  0.97435879  0.95071541    -0.75610
C308        C  0.62457397  0.97228891  0.02637377     1.05280
Fe309      Fe  0.72423762  0.84257970  0.26245605     1.65780
Fe310      Fe  0.68751152  0.90007345  0.24052452     1.73250
Fe311      Fe  0.72342164  0.90086002  0.30243434     1.54410
O312        O  0.72204612  0.86486670  0.32892004    -0.79350
O313        O  0.71331605  0.93409649  0.23683716    -0.77650
O314        O  0.71018490  0.82922135  0.30113743    -0.81850
O315        O  0.76427180  0.84982765  0.27716424    -0.76710
O316        O  0.68039607  0.90501063  0.31213464    -0.78480
O317        O  0.70802526  0.88318872  0.20634983    -0.81230
C318        C  0.77846956  0.87085105  0.28541351     0.99540
C319        C  0.71371254  0.83956977  0.32537629     1.06980
O320        O  0.71220926  0.88129849  0.26818145    -1.10210
O321        O  0.65890667  0.86829521  0.24147399    -0.72640
O322        O  0.68600629  0.83038456  0.24696891    -0.76130
O323        O  0.76687457  0.89389194  0.29363819    -0.76820
C324        C  0.66256045  0.84209412  0.24240361     0.98440
O325        O  0.73903496  0.85221254  0.22329577    -0.74770
O326        O  0.66332463  0.91905825  0.27092885    -0.79970
C327        C  0.72322100  0.94952383  0.25599190     1.01070
C328        C  0.65979385  0.91157811  0.29624745     1.06980
O329        O  0.72585623  0.94087863  0.28148744    -0.75610
C330        C  0.72865844  0.86662508  0.20349613     1.05280
Fe331      Fe  0.51312698  0.95738351  0.38857863     1.65780
Fe332      Fe  0.55229715  0.98038325  0.33268717     1.73250
Fe333      Fe  0.51372790  0.91919665  0.32773286     1.54420
O334        O  0.51757972  0.89077736  0.36211669    -0.79350
O335        O  0.53117554  0.98331959  0.29546415    -0.77650
O336        O  0.52256380  0.91743569  0.40026133    -0.81850
O337        O  0.47245406  0.94740228  0.37956813    -0.76710
O338        O  0.55615189  0.90878394  0.31833769    -0.78480
O339        O  0.52932091  0.01419018  0.34626792    -0.81230
C340        C  0.45850305  0.93791337  0.35908878     0.99540
C341        C  0.52263481  0.89378757  0.38834577     1.06980
O342        O  0.52617233  0.95235702  0.34948556    -1.10210
O343        O  0.57821200  0.98119747  0.36695911    -0.72640
O344        O  0.55195781  0.96765920  0.40330133    -0.76130
O345        O  0.47027668  0.92742567  0.33705128    -0.76820
C346        C  0.57495206  0.97552778  0.39264405     0.98440
O347        O  0.50247584  0.99831250  0.38150116    -0.74770
O348        O  0.57846428  0.95026995  0.31772405    -0.79970
C349        C  0.51682640  0.96671182  0.28059347     1.01070
C350        C  0.57837437  0.92384953  0.31556724     1.06980
O351        O  0.50917928  0.94235350  0.28939982    -0.75610
C352        C  0.51069402  0.01749190  0.36497738     1.05280
Fe353      Fe  0.77017646  0.84263277  0.72057223     1.65780
Fe354      Fe  0.80714415  0.89979431  0.74331644     1.73250
Fe355      Fe  0.76941482  0.90237071  0.68214634     1.54410
O356        O  0.77235487  0.86730255  0.65452756    -0.79350
O357        O  0.78225812  0.93432086  0.74784705    -0.77650
O358        O  0.78354754  0.83060285  0.68135313    -0.81850
O359        O  0.72972221  0.84960888  0.70688724    -0.76710
O360        O  0.81169814  0.90966248  0.67166649    -0.78480
O361        O  0.78645699  0.88293791  0.77711662    -0.81230
C362        C  0.71516252  0.87041038  0.69881786     0.99540
C363        C  0.78060125  0.84187946  0.65744877     1.06980
O364        O  0.78195963  0.88172658  0.71550570    -1.10210
O365        O  0.83549844  0.86772917  0.74217330    -0.72640
O366        O  0.80867617  0.82995402  0.73507093    -0.76130
O367        O  0.72635208  0.89366794  0.69081594    -0.76820
C368        C  0.83199594  0.84154868  0.74046052     0.98440
O369        O  0.75613687  0.85117710  0.76024335    -0.74770
O370        O  0.83148468  0.91857898  0.71330811    -0.79970
C371        C  0.76993546  0.94951510  0.72998013     1.01070
C372        C  0.83296990  0.91539825  0.68696412     1.06980
O373        O  0.76543416  0.94126862  0.70464550    -0.75610
C374        C  0.76621304  0.86594063  0.77995446     1.05280
Fe375      Fe  0.97436176  0.96737226  0.59466306     1.65780
Fe376      Fe  0.93777083  0.98909325  0.65228146     1.73250
Fe377      Fe  0.97649757  0.92875799  0.65414110     1.54410
O378        O  0.97436821  0.90135334  0.61883778    -0.79350
O379        O  0.96394373  0.99470731  0.68582988    -0.77650
O380        O  0.96146216  0.92811734  0.58266732    -0.81850
O381        O  0.01498259  0.95415854  0.60110561    -0.76710
O382        O  0.93444138  0.91744621  0.66140244    -0.78480
O383        O  0.95645548  0.02341385  0.63411993    -0.81230
C384        C  0.02990679  0.94665812  0.62184308     0.99540
C385        C  0.96555873  0.90424840  0.59360064     1.06980
O386        O  0.96322008  0.96191561  0.63381446    -1.10210
O387        O  0.90854418  0.98605760  0.62086917    -0.72640
O388        O  0.93542284  0.98133860  0.58265264    -0.76130
O389        O  0.01920191  0.93859557  0.64531459    -0.76820
C390        C  0.91186930  0.98497551  0.59454837     0.98440
O391        O  0.98797927  0.00708034  0.60325709    -0.74770
O392        O  0.91538086  0.95873926  0.67285736    -0.79970
C393        C  0.97566206  0.97658800  0.70129893     1.01070
C394        C  0.91347165  0.93261409  0.66850425     1.06980
O395        O  0.97976702  0.95113933  0.69316346    -0.75610
C396        C  0.97689725  0.02668898  0.61741251     1.05280
Fe397      Fe  0.84981540  0.26165022  0.71896869     1.65780
Fe398      Fe  0.90815158  0.23901065  0.68347584     1.73250
Fe399      Fe  0.90926657  0.30072865  0.72091499     1.54410
O400        O  0.87431631  0.32800099  0.71741812    -0.79350
O401        O  0.94304013  0.23631192  0.70804246    -0.77650
O402        O  0.83788812  0.30099355  0.70600403    -0.81850
O403        O  0.85630570  0.27467917  0.75979648    -0.76710
O404        O  0.91732269  0.31102644  0.67875200    -0.78480
O405        O  0.89267483  0.20527002  0.70529712    -0.81230
C406        C  0.87671237  0.28328482  0.77463573     0.99540
C407        C  0.84907782  0.32492640  0.70893016     1.06980
O408        O  0.88919919  0.26694054  0.70804214    -1.10210
O409        O  0.87617156  0.23769329  0.65500562    -0.72640
O410        O  0.83781933  0.24781880  0.67997904    -0.76130
O411        O  0.89986550  0.29203915  0.76378412    -0.76820
C412        C  0.84997871  0.24063052  0.65741952     0.98440
O413        O  0.85786156  0.22168854  0.73247102    -0.74770
O414        O  0.92527689  0.26932089  0.65835805    -0.79970
C415        C  0.95737674  0.25447698  0.72091329     1.01070
C416        C  0.92268501  0.29575896  0.65729785     1.06980
O417        O  0.94829664  0.27935755  0.72572090    -0.75610
C418        C  0.87414217  0.20231169  0.72416855     1.05280
Fe419      Fe  0.97213333  0.38879344  0.51497274     1.65780
Fe420      Fe  0.99568601  0.33103409  0.55044554     1.73250
Fe421      Fe  0.93388820  0.32879218  0.51366737     1.54410
O422        O  0.90616463  0.36345380  0.51657452    -0.79350
O423        O  0.99933853  0.29652203  0.52520534    -0.77650
O424        O  0.93274362  0.40017794  0.52798758    -0.81850
O425        O  0.95916488  0.38170852  0.47438869    -0.76710
O426        O  0.92378869  0.32111754  0.55597159    -0.78480
O427        O  0.02926012  0.34784161  0.52927948    -0.81230
C428        C  0.95126715  0.36087147  0.45976798     0.99540
C429        C  0.90896529  0.38877695  0.52492331     1.06980
O430        O  0.96742657  0.34943720  0.52609313    -1.10210
O431        O  0.99555126  0.36295590  0.57920492    -0.72640
O432        O  0.98574335  0.40112083  0.55382141    -0.76130
O433        O  0.94277289  0.33770090  0.47076683    -0.76820
C434        C  0.99244549  0.38914142  0.57657955     0.98440
O435        O  0.01220465  0.38157817  0.50133611    -0.74770
O436        O  0.96585935  0.31241495  0.57510785    -0.79970
C437        C  0.98089500  0.28143654  0.51356558     1.01070
C438        C  0.93947629  0.31511005  0.57690993     1.06980
O439        O  0.95568340  0.28995140  0.50957213    -0.75610
C440        C  0.03200015  0.36625191  0.51029372     1.05280
Fe441      Fe  0.85128886  0.71672134  0.76640446     1.65780
Fe442      Fe  0.90837774  0.73946387  0.80316112     1.73250
Fe443      Fe  0.91112520  0.67890412  0.76467992     1.54410
O444        O  0.87608292  0.65114241  0.76699911    -0.79350
O445        O  0.94234135  0.74503747  0.77750331    -0.77650
O446        O  0.83966037  0.67757248  0.77998396    -0.81850
O447        O  0.85773641  0.70292985  0.72586361    -0.76710
O448        O  0.91822510  0.66794481  0.80707416    -0.78480
O449        O  0.89030908  0.77336067  0.78356189    -0.81230
C450        C  0.87862375  0.69592623  0.71083642     0.99540
C451        C  0.85083026  0.65380563  0.77592956     1.06980
O452        O  0.89041124  0.71187092  0.77776463    -1.10210
O453        O  0.87672884  0.73688510  0.83207547    -0.72640
O454        O  0.83894006  0.73137209  0.80497736    -0.76130
O455        O  0.90224753  0.68841831  0.72163961    -0.76820
C456        C  0.85051813  0.73584610  0.82847827     0.98440
O457        O  0.85973046  0.75624221  0.75222185    -0.74770
O458        O  0.92847614  0.70943978  0.82644052    -0.79970
C459        C  0.95793563  0.72719155  0.76554887     1.01070
C460        C  0.92453645  0.68321843  0.82827706     1.06980
O461        O  0.94999729  0.70169877  0.76123802    -0.75610
C462        C  0.87369290  0.77614326  0.76300595     1.05280
Fe463      Fe  0.97443335  0.59271274  0.97229241     1.65780
Fe464      Fe  0.99746899  0.64988602  0.93552244     1.73250
Fe465      Fe  0.93623252  0.65254070  0.97307443     1.54410
O466        O  0.90863196  0.61744079  0.97090719    -0.79350
O467        O  0.00208459  0.68433314  0.96061741    -0.77650
O468        O  0.93532746  0.58088861  0.95898780    -0.81850
O469        O  0.96065939  0.59973087  0.01262483    -0.76710
O470        O  0.92578883  0.65944336  0.93054999    -0.78480
O471        O  0.03113877  0.63275025  0.95611084    -0.81230
C472        C  0.95324434  0.62072235  0.02724347     0.99540
C473        C  0.91149508  0.59206829  0.96252080     1.06980
O474        O  0.96954700  0.63183720  0.96059895    -1.10210
O475        O  0.99603054  0.61787481  0.90705498    -0.72640
O476        O  0.98886904  0.58001879  0.93378670    -0.76130
O477        O  0.94536552  0.64407934  0.01615325    -0.76820
C478        C  0.99406998  0.59168512  0.91044590     0.98440
O479        O  0.01405056  0.60098889  0.98637120    -0.74770
O480        O  0.96761648  0.66900952  0.91128938    -0.79970
C481        C  0.98389640  0.69983249  0.97214765     1.01070
C482        C  0.94133037  0.66553447  0.90941180     1.06980
O483        O  0.95850073  0.69160535  0.97637245    -0.75610
C484        C  0.03385448  0.61568314  0.97630785     1.05280
Fe485      Fe  0.77144229  0.13665950  0.76727318     1.65780
Fe486      Fe  0.80808876  0.07881717  0.74582007     1.73250
Fe487      Fe  0.76917223  0.07745366  0.80654089     1.54420
O488        O  0.77223648  0.11288172  0.83363633    -0.79350
O489        O  0.78308116  0.04433922  0.74163172    -0.77650
O490        O  0.78430516  0.14909828  0.80641045    -0.81850
O491        O  0.73077778  0.13060664  0.78062910    -0.76710
O492        O  0.81127949  0.06938040  0.81765841    -0.78480
O493        O  0.78791041  0.09507960  0.71159455    -0.81230
C494        C  0.71568484  0.11028274  0.78893824     0.99540
C495        C  0.78070084  0.13821536  0.83041861     1.06980
O496        O  0.78264369  0.09750298  0.77309177    -1.10210
O497        O  0.83678083  0.11072754  0.74665874    -0.72640
O498        O  0.81021746  0.14875554  0.75302806    -0.76130
O499        O  0.72629345  0.08689340  0.79732903    -0.76820
C500        C  0.83350197  0.13696013  0.74802855     0.98440
O501        O  0.75784027  0.12750494  0.72767779    -0.74770
O502        O  0.83179630  0.06039977  0.77627451    -0.79970
C503        C  0.76998873  0.02962031  0.75941297     1.01070
C504        C  0.83277221  0.06330655  0.80264560     1.06980
O505        O  0.76483243  0.03833908  0.78448313    -0.75610
C506        C  0.76778365  0.11208531  0.70837885     1.05280
Fe507      Fe  0.97679488  0.01207558  0.88966516     1.65780
Fe508      Fe  0.94011986  0.98958618  0.83233979     1.73250
Fe509      Fe  0.97723220  0.05105318  0.83037717     1.54420
O510        O  0.97522041  0.07821356  0.86571971    -0.79350
O511        O  0.96541655  0.98546802  0.79788348    -0.77650
O512        O  0.96329654  0.05112110  0.90198873    -0.81850
O513        O  0.01708310  0.02603207  0.88246387    -0.76710
O514        O  0.93466929  0.06133113  0.82453192    -0.78480
O515        O  0.96060530  0.95564388  0.84926334    -0.81230
C516        C  0.03158714  0.03395585  0.86150782     0.99540
C517        C  0.96668338  0.07510324  0.89101703     1.06980
O518        O  0.96509486  0.01733668  0.85066321    -1.10210
O519        O  0.91156864  0.99063507  0.86440077    -0.72640
O520        O  0.93834671  0.99739733  0.90225167    -0.76130
O521        O  0.02038020  0.04205456  0.83828631    -0.76820
C522        C  0.91502049  0.99224315  0.89061634     0.98440
O523        O  0.99091670  0.97246259  0.88101043    -0.74770
O524        O  0.91599177  0.01973408  0.81341982    -0.79970
C525        C  0.97639697  0.00407782  0.78243972     1.01070
C526        C  0.91367917  0.04575239  0.81837646     1.06980
O527        O  0.98021469  0.02942978  0.79093409    -0.75610
C528        C  0.98072579  0.95271433  0.86636384     1.05280
Fe529      Fe  0.77173486  0.76313305  0.13865165     1.65780
Fe530      Fe  0.75011268  0.79919461  0.08092011     1.73250
Fe531      Fe  0.81075396  0.76105007  0.07951083     1.54410
O532        O  0.83777121  0.76369498  0.11501501    -0.79350
O533        O  0.74482892  0.77264586  0.04773526    -0.77650
O534        O  0.81055482  0.77737551  0.15067103    -0.81850
O535        O  0.78618987  0.72264719  0.13286040    -0.76710
O536        O  0.82175021  0.80330090  0.07246844    -0.78480
O537        O  0.71586306  0.78022552  0.09920510    -0.81230
C538        C  0.79345443  0.70750600  0.11212522     0.99540
C539        C  0.83457372  0.77330919  0.13994885     1.06980
O540        O  0.77736742  0.77410700  0.09956321    -1.10210
O541        O  0.75268362  0.82871485  0.11201593    -0.72640
O542        O  0.75629264  0.80178560  0.15022992    -0.76130
O543        O  0.80114440  0.71815552  0.08846193    -0.76820
C544        C  0.75257052  0.82530930  0.13831375     0.98440
O545        O  0.73251536  0.74837074  0.12949240    -0.74770
O546        O  0.78045839  0.82167521  0.06019792    -0.79970
C547        C  0.76311310  0.76126110  0.03220598     1.01070
C548        C  0.80641945  0.82410611  0.06526529     1.06980
O549        O  0.78864340  0.75753380  0.04028940    -0.75610
C550        C  0.71279510  0.75934698  0.11542327     1.05280
Fe551      Fe  0.89560184  0.96738886  0.01577769     1.65780
Fe552      Fe  0.83851657  0.93080027  0.99331954     1.73250
Fe553      Fe  0.83600792  0.96866956  0.05402546     1.54410
O554        O  0.87125010  0.96647922  0.08149925    -0.79350
O555        O  0.80529780  0.95727095  0.98748807    -0.77650
O556        O  0.90735819  0.95322443  0.05469377    -0.81850
O557        O  0.88915218  0.00768474  0.03027606    -0.76710
O558        O  0.82941838  0.92629407  0.06477655    -0.78480
O559        O  0.85737660  0.94970982  0.95940064    -0.81230
C560        C  0.86807471  0.02251309  0.03711985     0.99540
C561        C  0.89636599  0.95725513  0.07859693     1.06980
O562        O  0.85658941  0.95597739  0.02086591    -1.10210
O563        O  0.86979919  0.90155720  0.99652078    -0.72640
O564        O  0.90768941  0.92895422  0.00037884    -0.76130
O565        O  0.84447704  0.01158867  0.04453219    -0.76820
C566        C  0.89605687  0.90529228  0.99666900     0.98440
O567        O  0.88681970  0.98212184  0.97649698    -0.74770
O568        O  0.81732043  0.90826176  0.02330217    -0.79970
C569        C  0.78944794  0.96851254  0.00561507     1.01070
C570        C  0.82244289  0.90556630  0.04923004     1.06980
O571        O  0.79707368  0.97190567  0.03134936    -0.75610
C572        C  0.87342510  0.97073567  0.95654339     1.05280
Fe573      Fe  0.14485605  0.76614470  0.76502944     1.65780
Fe574      Fe  0.08765058  0.74410422  0.80216136     1.73250
Fe575      Fe  0.08547847  0.80486106  0.76410607     1.54420
O576        O  0.12089151  0.83226436  0.76633619    -0.79350
O577        O  0.05398614  0.73867434  0.77626260    -0.77650
O578        O  0.15719039  0.80525981  0.77831268    -0.81850
O579        O  0.13806867  0.77989263  0.72451241    -0.76710
O580        O  0.07872010  0.81564902  0.80646445    -0.78480
O581        O  0.10559791  0.71000098  0.78302067    -0.81230
C582        C  0.11715715  0.78752773  0.70987985     0.99540
C583        C  0.14623274  0.82922933  0.77483481     1.06980
O584        O  0.10588660  0.77155281  0.77676240    -1.10210
O585        O  0.11925728  0.74677238  0.83106035    -0.72640
O586        O  0.15714926  0.75148316  0.80369774    -0.76130
O587        O  0.09386710  0.79555230  0.72104419    -0.76820
C588        C  0.14551255  0.74742204  0.82733890     0.98440
O589        O  0.13585621  0.72660679  0.75102580    -0.74770
O590        O  0.06722899  0.77414914  0.82505229    -0.79970
C591        C  0.03832232  0.75683854  0.76494119     1.01070
C592        C  0.07177249  0.80020865  0.82732435     1.06980
O593        O  0.04633591  0.78239612  0.76100730    -0.75610
C594        C  0.12185473  0.70690095  0.76220493     1.05280
Fe595      Fe  0.02120467  0.88721814  0.97013993     1.65780
Fe596      Fe  0.99906301  0.82960105  0.93418123     1.73250
Fe597      Fe  0.05988521  0.82805492  0.97184213     1.54420
O598        O  0.08702786  0.86354234  0.96981385    -0.79350
O599        O  0.99374469  0.79635927  0.96080566    -0.77650
O600        O  0.06010836  0.89917796  0.95588632    -0.81850
O601        O  0.03569376  0.88098516  0.01044674    -0.76710
O602        O  0.07067933  0.82187702  0.92949444    -0.78480
O603        O  0.96493096  0.84798948  0.95328780    -0.81230
C604        C  0.04286774  0.86011956  0.02541632     0.99540
C605        C  0.08404297  0.88850397  0.96028020     1.06980
O606        O  0.02648344  0.84816144  0.95913397    -1.10210
O607        O  0.00178443  0.86076386  0.90468641    -0.72640
O608        O  0.00595209  0.89896474  0.93156431    -0.76130
O609        O  0.05030921  0.83646037  0.01470409    -0.76820
C610        C  0.00222249  0.88706292  0.90804837     0.98440
O611        O  0.98188340  0.87833519  0.98493950    -0.74770
O612        O  0.02940639  0.80889057  0.91164032    -0.79970
C613        C  0.01219268  0.78068933  0.97166376     1.01070
C614        C  0.05518222  0.81480399  0.90880247     1.06980
O615        O  0.03780404  0.78874401  0.97493005    -0.75610
C616        C  0.96201382  0.86438784  0.97404683     1.05280
Fe617      Fe  0.27252439  0.21750023  0.14011408     1.65780
Fe618      Fe  0.25143394  0.17978800  0.08314252     1.73250
Fe619      Fe  0.31172863  0.22020080  0.07999559     1.54420
O620        O  0.30398097  0.26271883  0.09217960    -0.79350
O621        O  0.28272892  0.15328069  0.07313965    -0.77650
O622        O  0.27750957  0.25914660  0.13116499    -0.81850
O623        O  0.31327546  0.21378609  0.15214649    -0.76710
O624        O  0.28851607  0.22750170  0.04227312    -0.78480
O625        O  0.24601928  0.15542923  0.11836735    -0.81230
C626        C  0.33692513  0.21240137  0.14032071     0.99540
C627        C  0.29045344  0.27365017  0.11292839     1.06980
O628        O  0.27856327  0.20622095  0.10085514    -1.10210
O629        O  0.21763867  0.20419834  0.09243946    -0.72640
O630        O  0.23034174  0.22245075  0.13383181    -0.76130
O631        O  0.34002003  0.21454944  0.11377686    -0.76820
C632        C  0.21261011  0.21800560  0.11451103     0.98440
O633        O  0.26813737  0.17708996  0.15334562    -0.74770
O634        O  0.25184570  0.19853483  0.04451866    -0.79970
C635        C  0.30881334  0.15526289  0.06901330     1.01070
C636        C  0.26623402  0.21671474  0.03165818     1.06980
O637        O  0.32235572  0.17857971  0.06849404    -0.75610
C638        C  0.25593696  0.15602438  0.14293229     1.05280
Fe639      Fe  0.39783081  0.01571643  0.01417479     1.65780
Fe640      Fe  0.34045503  0.05056886  0.99044248     1.73250
Fe641      Fe  0.33710667  0.01209141  0.05172804     1.54420
O642        O  0.34977134  0.96972499  0.04414403    -0.79350
O643        O  0.33115243  0.07855838  0.02083311    -0.77650
O644        O  0.38949159  0.97383014  0.01865071    -0.81850
O645        O  0.40907779  0.01960007  0.05552278    -0.76710
O646        O  0.29976247  0.00391596  0.02842139    -0.78480
O647        O  0.37575209  0.07422573  0.98322261    -0.81230
C648        C  0.39653727  0.02097266  0.07886182     0.99540
C649        C  0.37084759  0.95909513  0.03083580     1.06980
O650        O  0.35818411  0.02559139  0.01878056    -1.10210
O651        O  0.34972007  0.02406560  0.95835808    -0.72640
O652        O  0.39290545  0.01090162  0.97147954    -0.76130
O653        O  0.36997900  0.01833712  0.08093640    -0.76820
C654        C  0.37317364  0.01264056  0.95362978     0.98440
O655        O  0.40917779  0.05672021  0.01067103    -0.74770
O656        O  0.30152985  0.03252534  0.99159104    -0.79970
C657        C  0.32741097  0.07716384  0.04708895     1.01070
C658        C  0.28893317  0.01433710  0.00614447     1.06980
O659        O  0.32592510  0.05409648  0.06107089    -0.75610
C660        C  0.39902264  0.07603644  0.99571083     1.05280
Fe661      Fe  0.47619433  0.88793435  0.01069931     1.65780
Fe662      Fe  0.49800434  0.82983982  0.04582295     1.73250
Fe663      Fe  0.43746524  0.82902901  0.00844417     1.54410
O664        O  0.41056880  0.86473254  0.01003185    -0.79350
O665        O  0.50389204  0.79779018  0.01801454    -0.77650
O666        O  0.43743702  0.89981560  0.02541912    -0.81850
O667        O  0.46135232  0.88246277  0.97032954    -0.76710
O668        O  0.42661648  0.82327299  0.05116344    -0.78480
O669        O  0.53218866  0.84941433  0.02787529    -0.81230
C670        C  0.45497522  0.86157925  0.95499497     0.99540
C671        C  0.41350604  0.88943587  0.02024964     1.06980
O672        O  0.47081009  0.84884749  0.02116022    -1.10210
O673        O  0.49427364  0.85998694  0.07595397    -0.72640
O674        O  0.49193523  0.89867913  0.04946365    -0.76130
O675        O  0.44771826  0.83764150  0.96546733    -0.76820
C676        C  0.49477007  0.88629817  0.07290567     0.98440
O677        O  0.51522047  0.87888697  0.99544533    -0.74770
O678        O  0.46755598  0.80784110  0.06730748    -0.79970
C679        C  0.48514018  0.78154426  0.00861444     1.01070
C680        C  0.44233695  0.81525211  0.07140573     1.06980
O681        O  0.45936858  0.78941779  0.00601136    -0.75610
C682        C  0.53514829  0.86550953  0.00686288     1.05280
Fe683      Fe  0.35110281  0.76693414  0.21751549     1.65780
Fe684      Fe  0.40769146  0.74355544  0.17941457     1.73250
Fe685      Fe  0.41171761  0.80469245  0.21781702     1.54410
O686        O  0.37726832  0.83300383  0.21413706    -0.79350
O687        O  0.44376472  0.73968369  0.20233153    -0.77650
O688        O  0.33948458  0.80658430  0.20592959    -0.81850
O689        O  0.35863037  0.77883648  0.25821885    -0.76710
O690        O  0.42070628  0.81505313  0.17523056    -0.78480
O691        O  0.39222068  0.70997467  0.20143082    -0.81230
C692        C  0.37914223  0.78751776  0.27269651     0.99540
C693        C  0.35135450  0.83027771  0.20752146     1.06980
O694        O  0.39032588  0.77163438  0.20512779    -1.10210
O695        O  0.37446003  0.74352898  0.15230239    -0.72640
O696        O  0.33746933  0.75433971  0.17894673    -0.76130
O697        O  0.40206189  0.79648173  0.26128952    -0.76820
C698        C  0.34849065  0.74728271  0.15584741     0.98440
O699        O  0.35864394  0.72665362  0.22994363    -0.74770
O700        O  0.42457974  0.77336997  0.15373142    -0.79970
C701        C  0.45860838  0.75664992  0.21629621     1.01070
C702        C  0.42477617  0.79990443  0.15327137     1.06980
O703        O  0.45005504  0.78147899  0.22261386    -0.75610
C704        C  0.37413708  0.70708513  0.22073210     1.05280
Fe705      Fe  0.64642389  0.21765477  0.76777338     1.65780
Fe706      Fe  0.58873676  0.24267658  0.80178014     1.73250
Fe707      Fe  0.58588025  0.17970537  0.76609922     1.54410
O708        O  0.59885730  0.18468736  0.72353001    -0.79350
O709        O  0.57911362  0.21364784  0.83099680    -0.77650
O710        O  0.63838159  0.21048044  0.72613665    -0.81850
O711        O  0.65809452  0.17665999  0.77431199    -0.76710
O712        O  0.54865038  0.20302187  0.75623269    -0.78480
O713        O  0.62360189  0.25089783  0.82540760    -0.81230
C714        C  0.64578195  0.15331137  0.77704941     0.99540
C715        C  0.61990098  0.19731488  0.71213428     1.06980
O716        O  0.60678130  0.21330372  0.77807641    -1.10210
O717        O  0.59797680  0.27357598  0.77402984    -0.72640
O718        O  0.64083011  0.25985859  0.76018433    -0.76130
O719        O  0.61915949  0.15094499  0.77443263    -0.76820
C720        C  0.62100498  0.27767356  0.76155223     0.98440
O721        O  0.65776597  0.22387988  0.80850695    -0.74770
O722        O  0.55016991  0.24082154  0.78355591    -0.79970
C723        C  0.57500544  0.18745269  0.83062442     1.01070
C724        C  0.53782408  0.22582527  0.76567018     1.06980
O725        O  0.57384188  0.17252830  0.80819672    -0.75610
C726        C  0.64712021  0.23897834  0.82751027     1.05280
Fe727      Fe  0.52328448  0.09306658  0.96834462     1.65780
Fe728      Fe  0.49950748  0.15151726  0.93527299     1.73250
Fe729      Fe  0.56082285  0.15375842  0.97358976     1.54420
O730        O  0.55420887  0.13912918  0.01563648    -0.79350
O731        O  0.52966277  0.16137690  0.90741729    -0.77650
O732        O  0.52878109  0.09966181  0.01047580    -0.81850
O733        O  0.56456216  0.08184680  0.96273002    -0.76710
O734        O  0.53696813  0.19065269  0.98375165    -0.78480
O735        O  0.49151132  0.11697326  0.91075021    -0.81230
C736        C  0.58788565  0.09440002  0.96094351     0.99540
C737        C  0.54117485  0.11763312  0.02575272     1.06980
O738        O  0.52792941  0.13301785  0.95955273    -1.10210
O739        O  0.46778558  0.14202664  0.96203399    -0.72640
O740        O  0.48076895  0.09855716  0.97462461    -0.76130
O741        O  0.59004204  0.12090927  0.96479294    -0.76820
C742        C  0.46312727  0.11858192  0.97349828     0.98440
O743        O  0.51855097  0.08269537  0.92708452    -0.74770
O744        O  0.50116401  0.19001388  0.95389235    -0.79970
C745        C  0.55560478  0.16658410  0.90912013     1.01070
C746        C  0.51508717  0.20199406  0.97287396     1.06980
O747        O  0.56947425  0.16762011  0.93223230    -0.75610
C748        C  0.50342409  0.09345815  0.90823367     1.05280
Fe749      Fe  0.02051797  0.46680737  0.89182841     1.65780
Fe750      Fe  0.05690178  0.48998449  0.83431175     1.73250
Fe751      Fe  0.01878364  0.42888796  0.83174632     1.54410
O752        O  0.02153538  0.40111325  0.86665173    -0.79350
O753        O  0.03240184  0.49419045  0.79927908    -0.77650
O754        O  0.03379520  0.42760455  0.90321662    -0.81850
O755        O  0.98002887  0.45333032  0.88517253    -0.76710
O756        O  0.06096585  0.41820207  0.82412559    -0.78480
O757        O  0.03576445  0.52361398  0.85094743    -0.81230
C758        C  0.96514635  0.44577229  0.86444110     0.99540
C759        C  0.03027275  0.40385080  0.89190478     1.06980
O760        O  0.03177774  0.46209591  0.85247073    -1.10210
O761        O  0.08528542  0.48940795  0.86653219    -0.72640
O762        O  0.05908578  0.48088752  0.90445602    -0.76130
O763        O  0.97591710  0.43796971  0.84090704    -0.76820
C764        C  0.08217889  0.48690004  0.89273115     0.98440
O765        O  0.00672240  0.50659449  0.88397436    -0.74770
O766        O  0.08140240  0.45985234  0.81611420    -0.79970
C767        C  0.01980198  0.47636765  0.78420016     1.01070
C768        C  0.08247729  0.43343309  0.81881257     1.06980
O769        O  0.01481594  0.45123723  0.79277538    -0.75610
C770        C  0.01614953  0.52632048  0.86874679     1.05280
Fe771      Fe  0.22592498  0.34419012  0.76622345     1.65780
Fe772      Fe  0.18849156  0.40146074  0.74475856     1.73250
Fe773      Fe  0.22658195  0.40329559  0.80568933     1.54410
O774        O  0.22442525  0.36769151  0.83270690    -0.79350
O775        O  0.21314996  0.43625715  0.74059006    -0.77650
O776        O  0.21323028  0.33139213  0.80535959    -0.81850
O777        O  0.26647635  0.35141882  0.77947267    -0.76710
O778        O  0.18425655  0.40986364  0.81665422    -0.78480
O779        O  0.20895317  0.38538769  0.71045871    -0.81230
C780        C  0.28094496  0.37220827  0.78778889     0.99540
C781        C  0.21644408  0.34222606  0.82940642     1.06980
O782        O  0.21397156  0.38311101  0.77206608    -1.10210
O783        O  0.16028365  0.36915690  0.74576086    -0.72640
O784        O  0.18723814  0.33138740  0.75219547    -0.76130
O785        O  0.26965742  0.39520443  0.79638362    -0.76820
C786        C  0.16380141  0.34296116  0.74731384     0.98440
O787        O  0.23942459  0.35341665  0.72650827    -0.74770
O788        O  0.16441625  0.41965833  0.77523840    -0.79970
C789        C  0.22509365  0.45141393  0.75875836     1.01070
C790        C  0.16295212  0.41588180  0.80149491     1.06980
O791        O  0.22978300  0.44275175  0.78393156    -0.75610
C792        C  0.22925959  0.36858597  0.70716344     1.05280
Fe793      Fe  0.77309317  0.63741940  0.21896401     1.65780
Fe794      Fe  0.80850342  0.57997755  0.24246509     1.73250
Fe795      Fe  0.77038512  0.57686683  0.18095899     1.54410
O796        O  0.72789555  0.58994124  0.18711386    -0.79350
O797        O  0.83648262  0.57067588  0.21232823    -0.77650
O798        O  0.73140881  0.62935810  0.21280136    -0.81850
O799        O  0.77878409  0.64923706  0.17789819    -0.76710
O800        O  0.76124070  0.53950748  0.20481507    -0.78480
O801        O  0.83226577  0.61526067  0.24996220    -0.81230
C802        C  0.78106284  0.63702476  0.15445590     0.99540
C803        C  0.71693950  0.61105092  0.19999241     1.06980
O804        O  0.78357261  0.59786100  0.21409044    -1.10210
O805        O  0.78193927  0.58880216  0.27445525    -0.72640
O806        O  0.76651856  0.63127244  0.26125290    -0.76130
O807        O  0.77821599  0.61038073  0.15201731    -0.76820
C808        C  0.76903558  0.61146687  0.27898534     0.98440
O809        O  0.81362105  0.64959541  0.22444869    -0.74770
O810        O  0.79047143  0.54100053  0.24114992    -0.79970
C811        C  0.83503854  0.56579766  0.18632927     1.01070
C812        C  0.77190233  0.52851593  0.22703929     1.06980
O813        O  0.81207256  0.56443025  0.17232504    -0.75610
C814        C  0.83320829  0.63935723  0.23894540     1.05280
Fe815      Fe  0.97549809  0.51416836  0.09615508     1.65780
Fe816      Fe  0.94133436  0.48967902  0.15388705     1.73250
Fe817      Fe  0.97785482  0.55230940  0.15661223     1.54420
O818        O  0.02030561  0.54635321  0.14396418    -0.79350
O819        O  0.91276529  0.51925790  0.16369701    -0.77650
O820        O  0.01718383  0.52073878  0.10437611    -0.81850
O821        O  0.96931029  0.55527114  0.08455477    -0.76710
O822        O  0.98710949  0.52934216  0.19392257    -0.78480
O823        O  0.91732133  0.48189797  0.11916094    -0.81230
C824        C  0.96691125  0.57864514  0.09687469     0.99540
C825        C  0.03143769  0.53335040  0.12304725     1.06980
O826        O  0.96535757  0.51873112  0.13579767    -1.10210
O827        O  0.96838145  0.45810776  0.14440622    -0.72640
O828        O  0.98251968  0.47179518  0.10162885    -0.76130
O829        O  0.97000294  0.58105474  0.12339937    -0.76820
C830        C  0.98067784  0.45380581  0.12128891     0.98440
O831        O  0.93470992  0.50830177  0.08470044    -0.74770
O832        O  0.95991402  0.49141952  0.19221442    -0.79970
C833        C  0.91344918  0.54549782  0.16749180     1.01070
C834        C  0.97757513  0.50658919  0.20465867     1.06980
O835        O  0.93598990  0.56022843  0.16846452    -0.75610
C836        C  0.91550056  0.49347702  0.09542189     1.05280
Fe837      Fe  0.72406879  0.34118065  0.71780220     1.65780
Fe838      Fe  0.68943028  0.39938260  0.74102960     1.73250
Fe839      Fe  0.72657744  0.40108858  0.67861630     1.54410
O840        O  0.76909691  0.38884970  0.68530261    -0.79350
O841        O  0.66145844  0.40987745  0.71100157    -0.77650
O842        O  0.76563608  0.34929173  0.71096564    -0.81850
O843        O  0.71805568  0.32865267  0.67712108    -0.76710
O844        O  0.73506427  0.43942455  0.70120447    -0.78480
O845        O  0.66461345  0.36503035  0.74787806    -0.81230
C846        C  0.71637096  0.34027365  0.65337642     0.99540
C847        C  0.78003574  0.36782428  0.69829034     1.06980
O848        O  0.71380304  0.38078980  0.71248493    -1.10210
O849        O  0.71541818  0.38947106  0.77341817    -0.72640
O850        O  0.73110558  0.34726711  0.75992981    -0.76130
O851        O  0.71956900  0.36681103  0.65034951    -0.76820
C852        C  0.72835689  0.36677928  0.77788191     0.98440
O853        O  0.68345840  0.32957067  0.72391329    -0.74770
O854        O  0.70887494  0.43743826  0.73988717    -0.79970
C855        C  0.66209309  0.41253677  0.68460465     1.01070
C856        C  0.72602177  0.45019306  0.72429343     1.06980
O857        O  0.68464673  0.41226827  0.66980853    -0.75610
C858        C  0.66355988  0.34077493  0.73735173     1.05280
Fe859      Fe  0.52302553  0.46407771  0.59206314     1.65780
Fe860      Fe  0.55793574  0.48860390  0.64896633     1.73250
Fe861      Fe  0.51857659  0.42804435  0.65372426     1.54410
O862        O  0.47631321  0.43594973  0.64054560    -0.79350
O863        O  0.58550676  0.45815751  0.65881649    -0.77650
O864        O  0.48095117  0.46063218  0.60038386    -0.81850
O865        O  0.52587318  0.42245650  0.58172416    -0.76710
O866        O  0.51087035  0.45229169  0.69081339    -0.78480
O867        O  0.58136330  0.49506784  0.61329646    -0.81230
C868        C  0.52678507  0.39936431  0.59467494     0.99540
C869        C  0.46592897  0.44893304  0.61913802     1.06980
O870        O  0.53265453  0.46020121  0.63187748    -1.10210
O871        O  0.53162978  0.52063099  0.63922530    -0.72640
O872        O  0.51918851  0.50702103  0.59595611    -0.76130
O873        O  0.52440505  0.39791298  0.62134158    -0.76820
C874        C  0.52077738  0.52516363  0.61547574     0.98440
O875        O  0.56420232  0.46649191  0.58063780    -0.74770
O876        O  0.54040401  0.48833649  0.68825112    -0.79970
C877        C  0.58366031  0.43220114  0.66404285     1.01070
C878        C  0.52215443  0.47432651  0.70139534     1.06980
O879        O  0.56038854  0.41852506  0.66564834    -0.75610
C880        C  0.58325751  0.48217255  0.59021916     1.05280
Fe881      Fe  0.72554937  0.71324173  0.34285977     1.65780
Fe882      Fe  0.75007333  0.67956022  0.40064304     1.73250
Fe883      Fe  0.68738476  0.71552106  0.40319618     1.54420
O884        O  0.69293863  0.75816154  0.38973797    -0.79350
O885        O  0.72086275  0.65001264  0.40947448    -0.77650
O886        O  0.71959725  0.75499401  0.35069635    -0.81850
O887        O  0.68446070  0.70810892  0.33100036    -0.76710
O888        O  0.71053208  0.72528098  0.44067764    -0.78480
O889        O  0.75896691  0.65657568  0.36538665    -0.81230
C890        C  0.66104267  0.70546174  0.34319648     0.99540
C891        C  0.70612175  0.76927841  0.36875863     1.06980
O892        O  0.72093380  0.70333619  0.38252473    -1.10210
O893        O  0.78087106  0.70780136  0.39196113    -0.72640
O894        O  0.76800997  0.71959436  0.34828427    -0.76130
O895        O  0.65864466  0.70746575  0.36987179    -0.76820
C896        C  0.78546980  0.71920595  0.36844593     0.98440
O897        O  0.73030459  0.67225696  0.33210904    -0.74770
O898        O  0.74767640  0.69709824  0.43969788    -0.79970
C899        C  0.69463846  0.65049207  0.41371261     1.01070
C900        C  0.73288269  0.71528666  0.45193563     1.06980
O901        O  0.67993737  0.67314300  0.41515189    -0.75610
C902        C  0.74611595  0.65374658  0.34243518     1.05280
Fe903      Fe  0.59776958  0.51389871  0.46650636     1.65780
Fe904      Fe  0.65638318  0.54639484  0.48960087     1.73250
Fe905      Fe  0.65840999  0.50709120  0.42906555     1.54420
O906        O  0.64246665  0.46520539  0.43609474    -0.79350
O907        O  0.66519508  0.57437341  0.45915087    -0.77650
O908        O  0.60329400  0.47164795  0.46182911    -0.81850
O909        O  0.58671373  0.51851807  0.42525427    -0.76710
O910        O  0.69525313  0.49684588  0.45312891    -0.78480
O911        O  0.62157308  0.57025948  0.49892919    -0.81230
C912        C  0.59931414  0.51974250  0.40192819     0.99540
C913        C  0.62058889  0.45577615  0.44924002     1.06980
O914        O  0.63778743  0.52187720  0.46158980    -1.10210
O915        O  0.64778404  0.51887937  0.52098471    -0.72640
O916        O  0.60340920  0.50836171  0.50916783    -0.76130
O917        O  0.62580661  0.51585846  0.39975075    -0.76820
C918        C  0.62408012  0.50806028  0.52610271     0.98440
O919        O  0.58831734  0.55545131  0.47002153    -0.74770
O920        O  0.69541240  0.52896233  0.48694535    -0.79970
C921        C  0.67154206  0.57208230  0.43344634     1.01070
C922        C  0.70721287  0.50924327  0.47389195     1.06980
O923        O  0.67311741  0.54850863  0.42015856    -0.75610
C924        C  0.59865497  0.57366625  0.48614201     1.05280
Fe925      Fe  0.34915375  0.71706965  0.71889284     1.65780
Fe926      Fe  0.40683278  0.74055320  0.68347511     1.73250
Fe927      Fe  0.40959912  0.67868933  0.72117168     1.54410
O928        O  0.39667870  0.68495125  0.76372897    -0.79350
O929        O  0.41718218  0.71049148  0.65531721    -0.77650
O930        O  0.35753842  0.71109628  0.76054835    -0.81850
O931        O  0.33737412  0.67599352  0.71350356    -0.76710
O932        O  0.44694161  0.70191560  0.73024742    -0.78480
O933        O  0.37185167  0.74748565  0.65938665    -0.81230
C934        C  0.34953814  0.65257137  0.71095552     0.99540
C935        C  0.37593548  0.69827055  0.77487168     1.06980
O936        O  0.38874187  0.71206963  0.70820391    -1.10210
O937        O  0.39717623  0.77282883  0.70978690    -0.72640
O938        O  0.35481053  0.75940566  0.72530245    -0.76130
O939        O  0.37614595  0.65003382  0.71341642    -0.76820
C940        C  0.37435730  0.77736391  0.72256471     0.98440
O941        O  0.33699123  0.72263669  0.67831968    -0.74770
O942        O  0.44535882  0.73933188  0.70229033    -0.79970
C943        C  0.42199119  0.68442211  0.65654986     1.01070
C944        C  0.45784964  0.72443722  0.72024348     1.06980
O945        O  0.42229632  0.67015887  0.67944208    -0.75610
C946        C  0.34760119  0.73681326  0.65857296     1.05280
Fe947      Fe  0.47506533  0.59184579  0.51418449     1.65780
Fe948      Fe  0.49922804  0.64893236  0.54861060     1.73250
Fe949      Fe  0.43608164  0.65166629  0.51352113     1.54410
O950        O  0.44109526  0.63884885  0.47080128    -0.79350
O951        O  0.47013153  0.65698575  0.57860281    -0.77650
O952        O  0.46936349  0.60100207  0.47275251    -0.81850
O953        O  0.43384397  0.57998410  0.51907269    -0.76710
O954        O  0.45802559  0.68868042  0.50367171    -0.78480
O955        O  0.50894314  0.61317278  0.57068286    -0.81230
C956        C  0.41064833  0.59220978  0.52318078     0.99540
C957        C  0.45526523  0.61898724  0.45908084     1.06980
O958        O  0.47004600  0.63111462  0.52496418    -1.10210
O959        O  0.53013171  0.64117171  0.51991789    -0.72640
O960        O  0.51765887  0.59740179  0.50817689    -0.76130
O961        O  0.40813012  0.61874130  0.52217577    -0.76820
C962        C  0.53520458  0.61752703  0.50895776     0.98440
O963        O  0.48014205  0.57995956  0.55489898    -0.74770
O964        O  0.49533298  0.68807611  0.53171242    -0.79970
C965        C  0.44410959  0.66236307  0.57823264     1.01070
C966        C  0.47977918  0.70019712  0.51409700     1.06980
O967        O  0.42930934  0.66399501  0.55572652    -0.75610
C968        C  0.49675792  0.58973129  0.57304589     1.05280
Fe969      Fe  0.27044838  0.64087606  0.26350005     1.65780
Fe970      Fe  0.30654305  0.58346022  0.23937884     1.73250
Fe971      Fe  0.26922787  0.58045183  0.30122032     1.54410
O972        O  0.27294968  0.61487055  0.32933458    -0.79350
O973        O  0.28271597  0.54791888  0.23604556    -0.77650
O974        O  0.28322589  0.65216224  0.30297839    -0.81850
O975        O  0.22982163  0.63368202  0.27643218    -0.76710
O976        O  0.31145040  0.57219508  0.31108497    -0.78480
O977        O  0.28420186  0.59916906  0.20618477    -0.81230
C978        C  0.21520458  0.61301326  0.28480221     0.99540
C979        C  0.28088071  0.64038874  0.32668119     1.06980
O980        O  0.28181772  0.60145954  0.26785832    -1.10210
O981        O  0.33444376  0.61601174  0.23869552    -0.72640
O982        O  0.30921003  0.65374758  0.25010924    -0.76130
O983        O  0.22624997  0.58984096  0.29314180    -0.76820
C984        C  0.33186827  0.64203108  0.24270686     0.98440
O985        O  0.25703578  0.63355379  0.22342279    -0.74770
O986        O  0.33216596  0.56636980  0.26912890    -0.79970
C987        C  0.26954521  0.53317812  0.25375657     1.01070
C988        C  0.33302923  0.56769033  0.29566993     1.06980
O989        O  0.26431345  0.54187913  0.27874766    -0.75610
C990        C  0.26523184  0.61760615  0.20372595     1.05280
Fe991      Fe  0.47376689  0.51343159  0.38862142     1.65780
Fe992      Fe  0.43625374  0.49277672  0.33148406     1.73250
Fe993      Fe  0.47596318  0.55255055  0.32934983     1.54410
O994        O  0.47372300  0.57996031  0.36435405    -0.79350
O995        O  0.46282152  0.48663869  0.29831408    -0.77650
O996        O  0.46180275  0.55302531  0.40083408    -0.81850
O997        O  0.51474337  0.52565676  0.38164120    -0.76710
O998        O  0.43409857  0.56432755  0.32204967    -0.78480
O999        O  0.45345421  0.45804594  0.34999530    -0.81230
C1000       C  0.52951350  0.53350630  0.36082947     0.99540
C1001       C  0.46516816  0.57694204  0.38965160     1.06980
O1002       O  0.46231678  0.51944690  0.34974211    -1.10210
O1003       O  0.40703505  0.49635097  0.36300031    -0.72640
O1004       O  0.43457428  0.49995990  0.40082237    -0.76130
O1005       O  0.51860347  0.54246110  0.33785593    -0.76820
C1006       C  0.41086239  0.49628122  0.38928967     0.98440
O1007       O  0.48624716  0.47326145  0.37991285    -0.74770
O1008       O  0.41474798  0.52329484  0.31042698    -0.79970
C1009       C  0.47519636  0.50451529  0.28298959     1.01070
C1010       C  0.41304806  0.54940087  0.31478759     1.06980
O1011       O  0.47932102  0.53001233  0.29076828    -0.75610
C1012       C  0.47369033  0.45393683  0.36662141     1.05280
Fe1013     Fe  0.27123784  0.26731231  0.63984255     1.65780
Fe1014     Fe  0.24821362  0.30409008  0.58276297     1.73250
Fe1015     Fe  0.30923053  0.26612452  0.57971340     1.54410
O1016       O  0.33718699  0.26926234  0.61468159    -0.79350
O1017       O  0.24311150  0.27866676  0.54864941    -0.77650
O1018       O  0.31054921  0.28031736  0.65163956    -0.81850
O1019       O  0.28442922  0.22675877  0.63286845    -0.76710
O1020       O  0.31987574  0.30812089  0.57143140    -0.78480
O1021       O  0.21439624  0.28406339  0.60038091    -0.81230
C1022       C  0.29178271  0.21218084  0.61180815     0.99540
C1023       C  0.33439638  0.27736044  0.64023399     1.06980
O1024       O  0.27614484  0.27899626  0.60067288    -1.10210
O1025       O  0.25016524  0.33281473  0.61461321    -0.72640
O1026       O  0.25717415  0.30595036  0.65240501    -0.76130
O1027       O  0.30006069  0.22329976  0.58863435    -0.76820
C1028       C  0.25202617  0.32932012  0.64082032     0.98440
O1029       O  0.23148494  0.25350761  0.63171290    -0.74770
O1030       O  0.27802070  0.32772917  0.56295494    -0.79970
C1031       C  0.26088019  0.26632674  0.53326033     1.01070
C1032       C  0.30445164  0.32911665  0.56505271     1.06980
O1033       O  0.28633488  0.26198856  0.54115627    -0.75610
C1034       C  0.21165723  0.26374177  0.61728085     1.05280
Fe1035     Fe  0.39263482  0.46735100  0.51422946     1.65780
Fe1036     Fe  0.33311430  0.43522958  0.49310009     1.73250
Fe1037     Fe  0.33458961  0.47171977  0.55396921     1.54410
O1038       O  0.37100989  0.46997922  0.58007938    -0.79350
O1039       O  0.30340299  0.46547786  0.48761593    -0.77650
O1040       O  0.40454194  0.45207551  0.55277643    -0.81850
O1041       O  0.38814039  0.50774768  0.52957347    -0.76710
O1042       O  0.32851004  0.42972147  0.56477001    -0.78480
O1043       O  0.35362060  0.45147422  0.45840299    -0.81230
C1044       C  0.36747657  0.52343300  0.53610439     0.99540
C1045       C  0.39523795  0.45868829  0.57682202     1.06980
O1046       O  0.35348082  0.45858852  0.52017373    -1.10210
O1047       O  0.36138467  0.40328963  0.49703419    -0.72640
O1048       O  0.40139982  0.42794185  0.49824366    -0.76130
O1049       O  0.34337258  0.51374051  0.54337313    -0.76820
C1050       C  0.38785336  0.40497859  0.49627206     0.98440
O1051       O  0.38370552  0.48324295  0.47536860    -0.74770
O1052       O  0.30996503  0.41606523  0.52430339    -0.79970
C1053       C  0.28697103  0.47361702  0.50681940     1.01070
C1054       C  0.31894202  0.41058637  0.54874168     1.06980
O1055       O  0.29465764  0.47457207  0.53276596    -0.75610
C1056       C  0.37005922  0.47223649  0.45538423     1.05280
Fe1057     Fe  0.64312199  0.26017620  0.26675717     1.65780
Fe1058     Fe  0.58448907  0.23892152  0.30266797     1.73250
Fe1059     Fe  0.58469454  0.30106010  0.26536585     1.54420
O1060       O  0.62043438  0.32745895  0.26982752    -0.79350
O1061       O  0.54917833  0.23753244  0.27848528    -0.77650
O1062       O  0.65656161  0.29924466  0.27907881    -0.81850
O1063       O  0.63672592  0.27298371  0.22604900    -0.76710
O1064       O  0.57508668  0.31129573  0.30706397    -0.78480
O1065       O  0.59878602  0.20467581  0.28070737    -0.81230
C1066       C  0.61684374  0.28301624  0.21149701     0.99540
C1067       C  0.64597773  0.32353088  0.27710206     1.06980
O1068       O  0.60395914  0.26663070  0.27811443    -1.10210
O1069       O  0.61677451  0.23673706  0.33092942    -0.72640
O1070       O  0.65502068  0.24654306  0.30563543    -0.76130
O1071       O  0.59430988  0.29289487  0.22254023    -0.76820
C1072       C  0.64298965  0.23960794  0.32830221     0.98440
O1073       O  0.63399498  0.22032775  0.25363889    -0.74770
O1074       O  0.56834272  0.26948228  0.32780825    -0.79970
C1075       C  0.53546431  0.25605707  0.26539014     1.01070
C1076       C  0.56898804  0.29602659  0.32829476     1.06980
O1077       O  0.54542304  0.28048142  0.25997574    -0.75610
C1078       C  0.61732354  0.20127146  0.26191539     1.05280
Fe1079     Fe  0.51015243  0.38508781  0.47084488     1.65780
Fe1080     Fe  0.48747739  0.32774331  0.43360659     1.73250
Fe1081     Fe  0.54978360  0.32604462  0.47028676     1.54420
O1082       O  0.57691592  0.36149008  0.46735825    -0.79350
O1083       O  0.48573307  0.29136198  0.45636019    -0.77650
O1084       O  0.54957565  0.39825221  0.45839419    -0.81850
O1085       O  0.52316791  0.37704016  0.51119400    -0.76710
O1086       O  0.55962006  0.31919416  0.42813722    -0.78480
O1087       O  0.45368204  0.34179986  0.45647447    -0.81230
C1088       C  0.53283955  0.35652663  0.52516496     0.99540
C1089       C  0.57368708  0.38717866  0.46019351     1.06980
O1090       O  0.51556694  0.34610707  0.45853285    -1.10210
O1091       O  0.48543853  0.36099884  0.40655344    -0.72640
O1092       O  0.49663858  0.39837781  0.43243534    -0.76130
O1093       O  0.54178760  0.33389433  0.51351345    -0.76820
C1094       C  0.48926826  0.38701343  0.40962360     0.98440
O1095       O  0.47006913  0.37640413  0.48387945    -0.74770
O1096       O  0.51786481  0.31246165  0.40737179    -0.79970
C1097       C  0.50451083  0.27675205  0.46804481     1.01070
C1098       C  0.54439165  0.31445475  0.40662086     1.06980
O1099       O  0.52899599  0.28647001  0.47363031    -0.75610
C1100       C  0.45065829  0.36025963  0.47538886     1.05280
Fe1101     Fe  0.89211026  0.00889583  0.46919405     1.65780
Fe1102     Fe  0.83386637  0.04410050  0.49200351     1.73250
Fe1103     Fe  0.83270770  0.00720989  0.43028733     1.54420
O1104       O  0.86827445  0.01056863  0.40287457    -0.79350
O1105       O  0.79964245  0.01833510  0.49601942    -0.77650
O1106       O  0.90427124  0.02263656  0.43012745    -0.81850
O1107       O  0.88573950  0.96853732  0.45527887    -0.76710
O1108       O  0.82528119  0.04945499  0.42012932    -0.78480
O1109       O  0.85110007  0.02362872  0.52584267    -0.81230
C1110       C  0.86517886  0.95363941  0.44722359     0.99540
C1111       C  0.89351178  0.01943621  0.40606228     1.06980
O1112       O  0.85275667  0.01971417  0.46403450    -1.10210
O1113       O  0.86546903  0.07330154  0.49123828    -0.72640
O1114       O  0.90396586  0.04762342  0.48377846    -0.76130
O1115       O  0.84177075  0.96431326  0.43905868    -0.76820
C1116       C  0.89178039  0.07061045  0.48927692     0.98440
O1117       O  0.88397655  0.99454613  0.50891239    -0.74770
O1118       O  0.81468153  0.06815001  0.46194718    -0.79970
C1119       C  0.78440325  0.00704055  0.47746707     1.01070
C1120       C  0.81871464  0.07029922  0.43572476     1.06980
O1121       O  0.79318760  0.00308504  0.45215424    -0.75610
C1122       C  0.86901285  0.00419585  0.52873814     1.05280
Fe1123     Fe  0.76824116  0.21485382  0.34585986     1.65780
Fe1124     Fe  0.74617263  0.17757547  0.40311634     1.73250
Fe1125     Fe  0.80773633  0.21473724  0.40482108     1.54410
O1126       O  0.83477478  0.21212810  0.36946333    -0.79350
O1127       O  0.74210448  0.20296043  0.43736053    -0.77650
O1128       O  0.80739714  0.20178733  0.33297786    -0.81850
O1129       O  0.78196345  0.25524709  0.35303282    -0.76710
O1130       O  0.81782204  0.17219478  0.41154294    -0.78480
O1131       O  0.71207076  0.19764251  0.38628646    -0.81230
C1132       C  0.79081823  0.26955347  0.37369044     0.99540
C1133       C  0.83147050  0.20442695  0.34396463     1.06980
O1134       O  0.77389331  0.20271165  0.38470618    -1.10210
O1135       O  0.74728511  0.14911481  0.37106109    -0.72640
O1136       O  0.75358673  0.17640611  0.33337176    -0.76130
O1137       O  0.79938407  0.25806497  0.39661473    -0.76820
C1138       C  0.74842752  0.15295955  0.34485580     0.98440
O1139       O  0.72853580  0.22865475  0.35497421    -0.74770
O1140       O  0.77607729  0.15351288  0.42222995    -0.79970
C1141       C  0.76065809  0.21432305  0.45252136     1.01070
C1142       C  0.80223568  0.15133478  0.41819346     1.06980
O1143       O  0.78599016  0.21822455  0.44401423    -0.75610
C1144       C  0.70887770  0.21792779  0.36944189     1.05280
Fe1145     Fe  0.22310571  0.76664280  0.64071112     1.65780
Fe1146     Fe  0.24810518  0.80071339  0.58284428     1.73250
Fe1147     Fe  0.18583119  0.76373199  0.57970436     1.54420
O1148       O  0.19165730  0.72116680  0.59318549    -0.79350
O1149       O  0.21863356  0.82915743  0.57193001    -0.77650
O1150       O  0.21664280  0.72486550  0.63304575    -0.81850
O1151       O  0.18201790  0.77274896  0.65191789    -0.76710
O1152       O  0.20959328  0.75425980  0.54240280    -0.78480
O1153       O  0.25492212  0.82514245  0.61756547    -0.81230
C1154       C  0.15875355  0.77495404  0.63947762     0.99540
C1155       C  0.20419938  0.71027405  0.61456232     1.06980
O1156       O  0.21897866  0.77661547  0.60085413    -1.10210
O1157       O  0.27968866  0.77396367  0.59321581    -0.72640
O1158       O  0.26541002  0.75957036  0.63571908    -0.76130
O1159       O  0.15659367  0.77187638  0.61285780    -0.76820
C1160       C  0.28362811  0.76149136  0.61628689     0.98440
O1161       O  0.22883874  0.80739631  0.65212578    -0.74770
O1162       O  0.24734680  0.78168715  0.54441639    -0.79970
C1163       C  0.19253301  0.82831814  0.56727330     1.01070
C1164       C  0.23245498  0.76390563  0.53171176     1.06980
O1165       O  0.17790445  0.80562025  0.56693660    -0.75610
C1166       C  0.24350660  0.82671442  0.64143842     1.05280
Fe1167     Fe  0.09741517  0.96801236  0.51456274     1.65780
Fe1168     Fe  0.15496949  0.93403993  0.48995323     1.73250
Fe1169     Fe  0.15821465  0.97126645  0.55182037     1.54410
O1170       O  0.14389369  0.01340120  0.54666181    -0.79350
O1171       O  0.16474863  0.90532886  0.51944979    -0.77650
O1172       O  0.10522772  0.00985588  0.51986594    -0.81850
O1173       O  0.08646825  0.96298138  0.55602757    -0.76710
O1174       O  0.19406048  0.98232641  0.52738849    -0.78480
O1175       O  0.12001236  0.91039938  0.48212003    -0.81230
C1176       C  0.09917331  0.95978278  0.57909751     0.99540
C1177       C  0.12320184  0.02431150  0.53317350     1.06980
O1178       O  0.13707087  0.95819668  0.51888121    -1.10210
O1179       O  0.14579859  0.96143983  0.45873596    -0.72640
O1180       O  0.10245833  0.97413435  0.47194943    -0.76130
O1181       O  0.12582957  0.96193751  0.58105272    -0.76820
C1182       C  0.12250587  0.97319141  0.45428196     0.98440
O1183       O  0.08641509  0.92696141  0.51006789    -0.74770
O1184       O  0.19339037  0.95237993  0.49157082    -0.79970
C1185       C  0.17071546  0.90664006  0.54525418     1.01070
C1186       C  0.20495320  0.97183955  0.50514738     1.06980
O1187       O  0.17224839  0.92965502  0.55930652    -0.75610
C1188       C  0.09682446  0.90804731  0.49471280     1.05280
Fe1189     Fe  0.72091580  0.13738057  0.21950125     1.65780
Fe1190     Fe  0.68525199  0.07933115  0.24125789     1.73250
Fe1191     Fe  0.72418053  0.07806443  0.18099282     1.54410
O1192       O  0.72179124  0.11350938  0.15370931    -0.79350
O1193       O  0.71203050  0.04637867  0.24698092    -0.77650
O1194       O  0.70723465  0.14916410  0.18039325    -0.81850
O1195       O  0.76173332  0.13175232  0.20559731    -0.76710
O1196       O  0.68246975  0.07032598  0.16951467    -0.78480
O1197       O  0.70358108  0.09778837  0.27553292    -0.81230
C1198       C  0.77704064  0.11100790  0.19866731     0.99540
C1199       C  0.71202415  0.13842373  0.15652477     1.06980
O1200       O  0.71039533  0.09816231  0.21406189    -1.10210
O1201       O  0.65540279  0.11009825  0.23830009    -0.72640
O1202       O  0.68185902  0.14863647  0.23433732    -0.76130
O1203       O  0.76663653  0.08727476  0.19113060    -0.76820
C1204       C  0.65845026  0.13643692  0.23807013     0.98440
O1205       O  0.73514677  0.12850506  0.25893905    -0.74770
O1206       O  0.66354531  0.05835128  0.21082847    -0.79970
C1207       C  0.72347816  0.03080344  0.22877588     1.01070
C1208       C  0.66170807  0.06262404  0.18467862     1.06980
O1209       O  0.72750769  0.03892769  0.20327692    -0.75610
C1210       C  0.72431481  0.11413554  0.27858885     1.05280
Fe1211     Fe  0.52103956  0.00998782  0.09426492     1.65780
Fe1212     Fe  0.55757063  0.98644529  0.15096527     1.73250
Fe1213     Fe  0.51891845  0.04676603  0.15460329     1.54420
O1214       O  0.52137081  0.07503702  0.11973419    -0.79350
O1215       O  0.53156621  0.97996935  0.18465949    -0.77650
O1216       O  0.53528332  0.04914027  0.08323662    -0.81850
O1217       O  0.48079779  0.02439525  0.10085445    -0.76710
O1218       O  0.56074600  0.05779494  0.16179571    -0.78480
O1219       O  0.53832824  0.95283586  0.13194999    -0.81230
C1220       C  0.46578027  0.03073451  0.12196555     0.99540
C1221       C  0.53091449  0.07278190  0.09459906     1.06980
O1222       O  0.53219874  0.01420301  0.13344173    -1.10210
O1223       O  0.58669940  0.99017859  0.11943885    -0.72640
O1224       O  0.55938923  0.99493006  0.08171382    -0.76130
O1225       O  0.47636684  0.03727369  0.14584547    -0.76820
C1226       C  0.58306070  0.99124212  0.09319528     0.98440
O1227       O  0.50630688  0.97060392  0.10245717    -0.74770
O1228       O  0.58019739  0.01633450  0.17194121    -0.79970
C1229       C  0.51943875  0.99751348  0.20052265     1.01070
C1230       C  0.58186415  0.04256826  0.16798126     1.06980
O1231       O  0.51537437  0.02321263  0.19308615    -0.75610
C1232       C  0.51732438  0.95042316  0.11582972     1.05280
Fe1233     Fe  0.27057506  0.71992462  0.84523220     1.65780
Fe1234     Fe  0.24753401  0.68397263  0.90311089     1.73250
Fe1235     Fe  0.30902645  0.72155789  0.90498280     1.54410
O1236       O  0.33673554  0.71783297  0.87001489    -0.79350
O1237       O  0.24349680  0.70909462  0.93752082    -0.77650
O1238       O  0.30984936  0.70681859  0.83337474    -0.81850
O1239       O  0.28379162  0.76062979  0.85169780    -0.76710
O1240       O  0.31924918  0.67928081  0.91323615    -0.78480
O1241       O  0.21377825  0.70487255  0.88637681    -0.81230
C1242       C  0.29212984  0.77548463  0.87218228     0.99540
C1243       C  0.33374163  0.70951027  0.84463079     1.06980
O1244       O  0.27555604  0.70877104  0.88457449    -1.10210
O1245       O  0.24812291  0.65525613  0.87136650    -0.72640
O1246       O  0.25664743  0.68104276  0.83314034    -0.76130
O1247       O  0.30055292  0.76459184  0.89543788    -0.76820
C1248       C  0.25068774  0.65807338  0.84516825     0.98440
O1249       O  0.23074075  0.73368668  0.85322622    -0.74770
O1250       O  0.27744605  0.65942648  0.92172435    -0.79970
C1251       C  0.26144217  0.72168917  0.95238466     1.01070
C1252       C  0.30386415  0.65800300  0.91909108     1.06980
O1253       O  0.28666211  0.72629946  0.94384261    -0.75610
C1254       C  0.21101251  0.72439652  0.86853433     1.05280
Fe1255     Fe  0.39660575  0.51471164  0.97021488     1.65780
Fe1256     Fe  0.33930463  0.55145244  0.99337956     1.73800
Fe1257     Fe  0.33672127  0.51384497  0.93207711     1.54410
O1258       O  0.37170984  0.51659721  0.90423298    -0.79350
O1259       O  0.30472758  0.52643993  0.99793449    -0.77650
O1260       O  0.40862043  0.52742279  0.93081275    -0.81850
O1261       O  0.38951278  0.47412315  0.95718428    -0.76710
O1262       O  0.32913425  0.55628613  0.92173224    -0.78480
O1263       O  0.35624460  0.53085592  0.02710696    -0.81230
C1264       C  0.36872144  0.45953736  0.94915605     0.99540
C1265       C  0.39729507  0.52438338  0.90698853     1.06980
O1266       O  0.35742843  0.52639762  0.96537209    -1.10210
O1267       O  0.37138122  0.57990961  0.99208121    -0.72640
O1268       O  0.40920629  0.55342437  0.98393695    -0.76130
O1269       O  0.34555599  0.47071353  0.94086998    -0.76820
C1270       C  0.39754413  0.57664100  0.98954097     0.98440
O1271       O  0.38851990  0.50117408  0.01009575    -0.74770
O1272       O  0.32034658  0.57580885  0.96360225    -0.79970
C1273       C  0.28947539  0.51438854  0.97990218     1.01070
C1274       C  0.32307172  0.57743548  0.93721267     1.06980
O1275       O  0.29782889  0.50994509  0.95458320    -0.75610
C1276       C  0.37363281  0.51098241  0.02986432     1.05280
Fe1277     Fe  0.72588389  0.21312000  0.64055031     1.65780
Fe1278     Fe  0.74780920  0.17531205  0.58316005     1.73250
Fe1279     Fe  0.68662101  0.21409921  0.58091617     1.54410
O1280       O  0.65900486  0.21005593  0.61573962    -0.79350
O1281       O  0.75036851  0.19818548  0.54701582    -0.77650
O1282       O  0.68604103  0.20285593  0.65320618    -0.81850
O1283       O  0.71511107  0.25420678  0.63293300    -0.76710
O1284       O  0.67593911  0.17203453  0.57130856    -0.78480
O1285       O  0.78206463  0.19736617  0.59721125    -0.81230
C1286       C  0.70513059  0.26860401  0.61290991     0.99540
C1287       C  0.66214851  0.20416902  0.64174283     1.06980
O1288       O  0.72018668  0.20101903  0.60141082    -1.10210
O1289       O  0.74912531  0.14822718  0.61631767    -0.72640
O1290       O  0.73738209  0.17398563  0.65365653    -0.76130
O1291       O  0.69488131  0.25721723  0.59065645    -0.76820
C1292       C  0.74486698  0.15120391  0.64227055     0.98440
O1293       O  0.76645138  0.22435532  0.63245238    -0.74770
O1294       O  0.71721552  0.14968160  0.56762112    -0.79970
C1295       C  0.73326201  0.21285860  0.53310340     1.01070
C1296       C  0.69066409  0.14990363  0.56705017     1.06980
O1297       O  0.70888487  0.21951080  0.54244508    -0.75610
C1298       C  0.78554145  0.21590022  0.61594404     1.05280
Fe1299     Fe  0.59559168  0.00539449  0.51674087     1.65780
Fe1300     Fe  0.65131985  0.04180641  0.49102402     1.73250
Fe1301     Fe  0.65592209  0.00692825  0.55336326     1.54420
O1302       O  0.62048000  0.01014428  0.58086062    -0.79350
O1303       O  0.68673628  0.01756567  0.48687632    -0.77650
O1304       O  0.58466970  0.02380185  0.55384431    -0.81850
O1305       O  0.60200726  0.96753287  0.53626383    -0.76710
O1306       O  0.66330929  0.04955797  0.56241143    -0.78480
O1307       O  0.63341513  0.01842088  0.45918253    -0.81230
C1308       C  0.62370146  0.95278045  0.54025472     0.99540
C1309       C  0.59565472  0.02017900  0.57776291     1.06980
O1310       O  0.63453762  0.01794324  0.52024496    -1.10210
O1311       O  0.61855981  0.06949913  0.49197941    -0.72640
O1312       O  0.58187996  0.04096925  0.49695829    -0.76130
O1313       O  0.64781466  0.96380231  0.54504857    -0.76820
C1314       C  0.59251885  0.06479202  0.49208909     0.98440
O1315       O  0.60467768  0.98670377  0.47919696    -0.74770
O1316       O  0.67002645  0.06817273  0.51962101    -0.79970
C1317       C  0.70274931  0.00685715  0.50515491     1.01070
C1318       C  0.66865761  0.07034489  0.54616436     1.06980
O1319       O  0.69482467  0.00316388  0.53075359    -0.75610
C1320       C  0.61762186  0.99689621  0.45818871     1.05280
Fe1321     Fe  0.22264323  0.72097556  0.13884182     1.65780
Fe1322     Fe  0.24513331  0.68476877  0.08149126     1.73250
Fe1323     Fe  0.18421965  0.72196015  0.07954710     1.54410
O1324       O  0.15691923  0.71993670  0.11491882    -0.79350
O1325       O  0.25079509  0.71164220  0.04858283    -0.77650
O1326       O  0.18381214  0.70662451  0.15081610    -0.81850
O1327       O  0.20798301  0.76118928  0.13249266    -0.76710
O1328       O  0.17379414  0.67923304  0.07348435    -0.78480
O1329       O  0.27900007  0.70370340  0.10029598    -0.81230
C1330       C  0.20123987  0.77601261  0.11139326     0.99540
C1331       C  0.15989388  0.71065875  0.13997589     1.06980
O1332       O  0.21751951  0.70964368  0.09985978    -1.10210
O1333       O  0.24186068  0.65535840  0.11254962    -0.72640
O1334       O  0.23813284  0.68249576  0.15066359    -0.76130
O1335       O  0.19371483  0.76505027  0.08783445    -0.76820
C1336       C  0.24161234  0.65888970  0.13882736     0.98440
O1337       O  0.26182182  0.73600192  0.12982472    -0.74770
O1338       O  0.21527194  0.66221093  0.06014618    -0.79970
C1339       C  0.23238916  0.72220500  0.03268510     1.01070
C1340       C  0.18960744  0.65876066  0.06619059     1.06980
O1341       O  0.20660139  0.72503088  0.04038446    -0.75610
C1342       C  0.28177686  0.72483686  0.11619024     1.05280
Fe1343     Fe  0.10127431  0.51310148  0.01804436     1.65780
Fe1344     Fe  0.15828713  0.55014421  0.99453371     1.73250
Fe1345     Fe  0.16137591  0.51272684  0.05599993     1.54410
O1346       O  0.12664585  0.51537509  0.08395043    -0.79350
O1347       O  0.19334442  0.52579094  0.99029960    -0.77650
O1348       O  0.08962656  0.52586831  0.05741886    -0.81850
O1349       O  0.10861235  0.47262624  0.03106466    -0.76710
O1350       O  0.16860303  0.55540698  0.06622125    -0.78480
O1351       O  0.14169864  0.52886317  0.96093641    -0.81230
C1352       C  0.12945023  0.45810825  0.03898461     0.99540
C1353       C  0.10112809  0.52321284  0.08118041     1.06980
O1354       O  0.14045664  0.52501391  0.02268109    -1.10210
O1355       O  0.12583985  0.57816754  0.99535923    -0.72640
O1356       O  0.08824916  0.55164834  0.00442489    -0.76130
O1357       O  0.15262157  0.46939040  0.04728860    -0.76820
C1358       C  0.09972905  0.57482533  0.99830721     0.98440
O1359       O  0.10899976  0.49961783  0.97804510    -0.74770
O1360       O  0.17662909  0.57512873  0.02426284    -0.79970
C1361       C  0.20865814  0.51380090  0.00830778     1.01070
C1362       C  0.17398866  0.57674589  0.05067408     1.06980
O1363       O  0.20026704  0.50907759  0.03355301    -0.75610
C1364       C  0.12398988  0.50920821  0.95821413     1.05280
Fe1365     Fe  0.22410781  0.63933165  0.72092084     1.65780
Fe1366     Fe  0.18710468  0.58212484  0.74404816     1.73250
Fe1367     Fe  0.22464717  0.57954438  0.68247643     1.54410
O1368       O  0.22150138  0.61468335  0.65473464    -0.79350
O1369       O  0.21164594  0.54722918  0.74813590    -0.77650
O1370       O  0.21127344  0.65157282  0.68166011    -0.81850
O1371       O  0.26458123  0.63212118  0.70762084    -0.76710
O1372       O  0.18236709  0.57187718  0.67232317    -0.78480
O1373       O  0.20815748  0.59859660  0.77775047    -0.81230
C1374       C  0.27900679  0.61134052  0.69928926     0.99540
C1375       C  0.21381121  0.64030336  0.65772097     1.06980
O1376       O  0.21220566  0.60020221  0.71595903    -1.10210
O1377       O  0.15894995  0.61444091  0.74341343    -0.72640
O1378       O  0.18557580  0.65210839  0.73495145    -0.76130
O1379       O  0.26772420  0.58829125  0.69089435    -0.76820
C1380       C  0.16236213  0.64058039  0.74088307     0.98440
O1381       O  0.23770805  0.63103859  0.76068921    -0.74770
O1382       O  0.16239996  0.56381518  0.71419599    -0.79970
C1383       C  0.22410027  0.53215455  0.73019714     1.01070
C1384       C  0.16107793  0.56626515  0.68776919     1.06980
O1385       O  0.22881186  0.54061917  0.70494379    -0.75610
C1386       C  0.22803343  0.61603302  0.78044694     1.05280
Fe1387     Fe  0.01916583  0.51388237  0.59546386     1.65780
Fe1388     Fe  0.05548741  0.49101403  0.65300505     1.73250
Fe1389     Fe  0.01747740  0.55212539  0.65537053     1.54420
O1390       O  0.02073713  0.57991378  0.62029668    -0.79350
O1391       O  0.03060976  0.48657524  0.68778416    -0.77650
O1392       O  0.03227441  0.55314444  0.58367185    -0.81850
O1393       O  0.97854073  0.52704503  0.60211567    -0.76710
O1394       O  0.05961959  0.56277170  0.66322975    -0.78480
O1395       O  0.03487317  0.45714336  0.63608666    -0.81230
C1396       C  0.96363680  0.53492329  0.62277126     0.99540
C1397       C  0.02929622  0.57701223  0.59492295     1.06980
O1398       O  0.03040466  0.51882506  0.63477452    -1.10210
O1399       O  0.08411929  0.49219508  0.62097432    -0.72640
O1400       O  0.05790280  0.50010783  0.58301919    -0.76130
O1401       O  0.97446975  0.54310316  0.64614932    -0.76820
C1402       C  0.08105919  0.49466213  0.59478628     0.98440
O1403       O  0.00552270  0.47400892  0.60346403    -0.74770
O1404       O  0.07965677  0.52109613  0.67171411    -0.79970
C1405       C  0.01850870  0.50459911  0.70306522     1.01070
C1406       C  0.08091205  0.54750950  0.66909763     1.06980
O1407       O  0.01354695  0.52974489  0.69446090    -0.75610
C1408       C  0.01520679  0.45427912  0.61845138     1.05280
Fe1409     Fe  0.02053393  0.01543056  0.38956786     1.65780
Fe1410     Fe  0.05520919  0.99166030  0.33202709     1.73250
Fe1411     Fe  0.01703488  0.05300934  0.32889468     1.54420
O1412       O  0.97451468  0.04612119  0.34288970    -0.79350
O1413       O  0.08346054  0.02166526  0.32209963    -0.77650
O1414       O  0.97853679  0.01918917  0.38154896    -0.81850
O1415       O  0.02389747  0.05687721  0.40083204    -0.76710
O1416       O  0.00760714  0.02920493  0.29207184    -0.78480
O1417       O  0.07877804  0.98446249  0.36728539    -0.81230
C1418       C  0.02676795  0.08012083  0.38838792     0.99540
C1419       C  0.96375048  0.03207966  0.36352780     1.06980
O1420       O  0.03044693  0.02010416  0.34987019    -1.10210
O1421       O  0.02844855  0.95972944  0.34137226    -0.72640
O1422       O  0.01617163  0.97260032  0.38490184    -0.76130
O1423       O  0.02501525  0.08223055  0.36170345    -0.76820
C1424       C  0.01748349  0.95482573  0.36503616     0.98440
O1425       O  0.06166470  0.01250944  0.40053120    -0.74770
O1426       O  0.03708956  0.99302686  0.29334593    -0.79970
C1427       C  0.08212055  0.04759709  0.31666183     1.01070
C1428       C  0.01841805  0.00713522  0.28109550     1.06980
O1429       O  0.05900584  0.06163594  0.31564062    -0.75610
C1430       C  0.08077527  0.99719371  0.39044175     1.05280
Fe1431     Fe  0.19288045  0.08153369  0.24210042     1.65780
Fe1432     Fe  0.22537018  0.13889718  0.26797048     1.73250
Fe1433     Fe  0.22655915  0.07845664  0.30585043     1.54420
O1434       O  0.18395547  0.06578458  0.31155776    -0.79350
O1435       O  0.26674787  0.13075304  0.27399176    -0.77650
O1436       O  0.16209416  0.07293418  0.27016813    -0.81850
O1437       O  0.20975760  0.04248724  0.24532904    -0.76710
O1438       O  0.21688722  0.11134919  0.33451989    -0.78480
O1439       O  0.23218213  0.13409019  0.22530168    -0.81230
C1440       C  0.22786946  0.03040918  0.26022612     0.99540
C1441       C  0.16172865  0.06768211  0.29622702     1.06980
O1442       O  0.21550407  0.09929549  0.27213516    -1.10210
O1443       O  0.18439536  0.14933444  0.26313292    -0.72640
O1444       O  0.17084988  0.11712132  0.23226134    -0.76130
O1445       O  0.23761594  0.04155804  0.28269275    -0.76820
C1446       C  0.16687321  0.13940343  0.24601495     0.98440
O1447       O  0.22266159  0.08988048  0.21257178    -0.74770
O1448       O  0.21992334  0.15038681  0.30922012    -0.79970
C1449       C  0.28069134  0.11289295  0.28792856     1.01070
C1450       C  0.21562385  0.13804925  0.33231990     1.06980
O1451       O  0.26931114  0.09237045  0.30162175    -0.75610
C1452       C  0.23309104  0.11382667  0.20790900     1.05280
Fe1453     Fe  0.64562673  0.71732320  0.21754468     1.65780
Fe1454     Fe  0.58856410  0.73905081  0.18048175     1.73250
Fe1455     Fe  0.58638419  0.67871205  0.21912090     1.54410
O1456       O  0.62197552  0.65154390  0.21726931    -0.79350
O1457       O  0.55483206  0.74477358  0.20640253    -0.77650
O1458       O  0.65792265  0.67839287  0.20361619    -0.81850
O1459       O  0.63925319  0.70281436  0.25788111    -0.76710
O1460       O  0.58015716  0.66755529  0.17691720    -0.78480
O1461       O  0.60665616  0.77316316  0.19936461    -0.81230
C1462       C  0.61839260  0.69551235  0.27284537     0.99540
C1463       C  0.64713960  0.65446023  0.20807103     1.06980
O1464       O  0.60671279  0.71188318  0.20608239    -1.10210
O1465       O  0.62020712  0.73609506  0.15147627    -0.72640
O1466       O  0.65784260  0.73277973  0.17915575    -0.76130
O1467       O  0.59470081  0.68831527  0.26205040    -0.76820
C1468       C  0.64641712  0.73631209  0.15540417     0.98440
O1469       O  0.63607755  0.75651480  0.23203055    -0.74770
O1470       O  0.56808891  0.70873683  0.15813644    -0.79970
C1471       C  0.53902000  0.72664460  0.21769458     1.01070
C1472       C  0.57336517  0.68282052  0.15594839     1.06980
O1473       O  0.54706517  0.70112149  0.22185983    -0.75610
C1474       C  0.62231318  0.77619885  0.22059037     1.05280
Fe1475     Fe  0.52271695  0.59411398  0.01411466     1.65780
Fe1476     Fe  0.50070220  0.65167934  0.05057776     1.73250
Fe1477     Fe  0.56136054  0.65357158  0.01188524     1.54410
O1478       O  0.58875528  0.61837032  0.01488556    -0.79350
O1479       O  0.49574872  0.68571796  0.02484558    -0.77650
O1480       O  0.56175931  0.58229057  0.02779670    -0.81850
O1481       O  0.53660737  0.60034234  0.97356134    -0.76710
O1482       O  0.57238194  0.66093706  0.05387228    -0.78480
O1483       O  0.46662777  0.63418671  0.03100910    -0.81230
C1484       C  0.54404294  0.62107312  0.95852400     0.99540
C1485       C  0.58569994  0.59333586  0.02425782     1.06980
O1486       O  0.52807383  0.63327141  0.02521085    -1.10210
O1487       O  0.50257507  0.61993090  0.07966011    -0.72640
O1488       O  0.50792266  0.58193735  0.05276943    -0.76130
O1489       O  0.55195689  0.64456799  0.96916539    -0.76820
C1490       C  0.50344290  0.59364015  0.07623889     0.98440
O1491       O  0.48320639  0.60288511  0.00000217    -0.74770
O1492       O  0.53104115  0.67133184  0.07360355    -0.79970
C1493       C  0.51364165  0.70079394  0.01222677     1.01070
C1494       C  0.55721788  0.66715272  0.07513095     1.06980
O1495       O  0.53899708  0.69251496  0.00783175    -0.75610
C1496       C  0.46357640  0.61743426  0.01060182     1.05280
Fe1497     Fe  0.14516874  0.21832833  0.71913150     1.65780
Fe1498     Fe  0.08760654  0.24196827  0.68317631     1.73250
Fe1499     Fe  0.08488475  0.18012853  0.72066108     1.54410
O1500       O  0.11926254  0.15231144  0.71608403    -0.79350
O1501       O  0.05212080  0.24483699  0.70708122    -0.77650
O1502       O  0.15657346  0.17895851  0.70635941    -0.81850
O1503       O  0.13860764  0.20540818  0.75974971    -0.76710
O1504       O  0.07505432  0.17029847  0.67841782    -0.78480
O1505       O  0.10318405  0.27531256  0.70555934    -0.81230
C1506       C  0.11838693  0.19648862  0.77460533     0.99540
C1507       C  0.14485130  0.15521388  0.70850547     1.06980
O1508       O  0.10574322  0.21357483  0.70784126    -1.10210
O1509       O  0.12010914  0.24311643  0.65518423    -0.72640
O1510       O  0.15781526  0.23195436  0.68046411    -0.76130
O1511       O  0.09519138  0.18784708  0.76375832    -0.76820
C1512       C  0.14617066  0.23955404  0.65788614     0.98440
O1513       O  0.13766650  0.25829520  0.73263868    -0.74770
O1514       O  0.07062579  0.21223802  0.65742775    -0.79970
C1515       C  0.03776033  0.22728940  0.72086355     1.01070
C1516       C  0.07034635  0.18567990  0.65680609     1.06980
O1517       O  0.04663027  0.20251734  0.72651572    -0.75610
C1518       C  0.12175488  0.27793558  0.72438163     1.05280
Fe1519     Fe  0.01678851  0.09328359  0.51358640     1.65780
Fe1520     Fe  0.99290380  0.15052678  0.54989020     1.73250
Fe1521     Fe  0.05478485  0.15347426  0.51307830     1.54410
O1522       O  0.08279620  0.11899971  0.51588503    -0.79350
O1523       O  0.98876880  0.18501943  0.52468142    -0.77650
O1524       O  0.05630479  0.08183842  0.52612153    -0.81850
O1525       O  0.02957408  0.10091193  0.47297680    -0.76710
O1526       O  0.06458676  0.16084481  0.55559436    -0.78480
O1527       O  0.95928926  0.13319648  0.52906217    -0.81230
C1528       C  0.03799645  0.12174558  0.45859798     0.99540
C1529       C  0.08006144  0.09344782  0.52359006     1.06980
O1530       O  0.02128498  0.13253623  0.52518223    -1.10210
O1531       O  0.99380984  0.11852991  0.57838602    -0.72640
O1532       O  0.00347493  0.08062358  0.55247837    -0.76130
O1533       O  0.04649230  0.14477536  0.46991470    -0.76820
C1534       C  0.99713262  0.09241875  0.57546730     0.98440
O1535       O  0.97659985  0.10023518  0.50034071    -0.74770
O1536       O  0.02251428  0.16956128  0.57473538    -0.79970
C1537       C  0.00716798  0.20037183  0.51320659     1.01070
C1538       C  0.04890048  0.16675288  0.57664815     1.06980
O1539       O  0.03251301  0.19212846  0.50923255    -0.75610
C1540       C  0.95659033  0.11491185  0.50994021     1.05280
Fe1541     Fe  0.22536087  0.84442106  0.21774934     1.65780
Fe1542     Fe  0.19059366  0.90181523  0.24276236     1.73250
Fe1543     Fe  0.22736428  0.90538104  0.18021248     1.54420
O1544       O  0.26989532  0.89271374  0.18564169    -0.79350
O1545       O  0.16235263  0.91294211  0.21332744    -0.77650
O1546       O  0.26702694  0.85282984  0.21073122    -0.81850
O1547       O  0.21867433  0.83321793  0.17664063    -0.76710
O1548       O  0.23688170  0.94233848  0.20399996    -0.78480
O1549       O  0.16598175  0.86722668  0.24912663    -0.81230
C1550       C  0.21600779  0.84571597  0.15338538     0.99540
C1551       C  0.28119909  0.87167561  0.19821903     1.06980
O1552       O  0.21482481  0.88407474  0.21357591    -1.10210
O1553       O  0.21684861  0.89129591  0.27460304    -0.72640
O1554       O  0.23284322  0.84955802  0.25998387    -0.76130
O1555       O  0.21912776  0.87230834  0.15114066    -0.76820
C1556       C  0.22997683  0.86861906  0.27842708     0.98440
O1557       O  0.18478026  0.83235227  0.22426602    -0.74770
O1558       O  0.21004362  0.93980286  0.24223135    -0.79970
C1559       C  0.16303885  0.91709996  0.18714761     1.01070
C1560       C  0.22775556  0.95250618  0.22724436     1.06980
O1561       O  0.18558905  0.91763894  0.17238757    -0.75610
C1562       C  0.16498310  0.84311420  0.23827216     1.05280
Fe1563     Fe  0.02202202  0.96720634  0.09420139     1.65780
Fe1564     Fe  0.05639876  0.99166831  0.15166677     1.73250
Fe1565     Fe  0.01979725  0.92922821  0.15479453     1.54420
O1566       O  0.97731794  0.93461170  0.14160962    -0.79350
O1567       O  0.08517531  0.96233338  0.16124188    -0.77650
O1568       O  0.98035083  0.96099226  0.10252927    -0.81850
O1569       O  0.02770546  0.92601562  0.08270740    -0.76710
O1570       O  0.00977789  0.95266658  0.19166456    -0.78480
O1571       O  0.08004621  0.99967876  0.11648035    -0.81230
C1572       C  0.03061777  0.90274084  0.09512236     0.99540
C1573       C  0.96612180  0.94785870  0.12088405     1.06980
O1574       O  0.03233198  0.96262623  0.13377702    -1.10210
O1575       O  0.02902653  0.02291549  0.14267272    -0.72640
O1576       O  0.01528757  0.00959187  0.09972234    -0.76130
O1577       O  0.02829176  0.90044050  0.12176012    -0.76820
C1578       C  0.01682012  0.02733067  0.11961407     0.98440
O1579       O  0.06277253  0.97276489  0.08245002    -0.74770
O1580       O  0.03811467  0.98977807  0.19036876    -0.79970
C1581       C  0.08434302  0.93632427  0.16629725     1.01070
C1582       C  0.01974335  0.97513781  0.20257417     1.06980
O1583       O  0.06167271  0.92171894  0.16750128    -0.75610
C1584       C  0.08184654  0.98795048  0.09278284     1.05280
Fe1585     Fe  0.22599727  0.21574308  0.84344367     1.65780
Fe1586     Fe  0.25043845  0.18036399  0.90064254     1.73250
Fe1587     Fe  0.18848899  0.21788722  0.90436772     1.54420
O1588       O  0.19483168  0.26045821  0.89211183    -0.79350
O1589       O  0.22051770  0.15219007  0.91074549    -0.77650
O1590       O  0.21944466  0.25737153  0.85189282    -0.81850
O1591       O  0.18492107  0.20956908  0.83199731    -0.76710
O1592       O  0.21204489  0.22634252  0.94173577    -0.78480
O1593       O  0.25734575  0.15643913  0.86557488    -0.81230
C1594       C  0.16155515  0.20760291  0.84444789     0.99540
C1595       C  0.20732313  0.27163999  0.87088312     1.06980
O1596       O  0.22164022  0.20506387  0.88305016    -1.10210
O1597       O  0.28230131  0.20698753  0.89097297    -0.72640
O1598       O  0.26818085  0.22288405  0.84899072    -0.76130
O1599       O  0.15935140  0.21071456  0.87106564    -0.76820
C1600       C  0.28626084  0.22034180  0.86840550     0.98440
O1601       O  0.23190668  0.17526473  0.83125867    -0.74770
O1602       O  0.24955535  0.19865115  0.93936039    -0.79970
C1603       C  0.19436991  0.15334878  0.91510673     1.01070
C1604       C  0.23471278  0.21633723  0.95226750     1.06980
O1605       O  0.18004268  0.17611707  0.91607100    -0.75610
C1606       C  0.24610870  0.15550510  0.84164494     1.05280
Fe1607     Fe  0.10017343  0.01474233  0.96815802     1.65780
Fe1608     Fe  0.15783548  0.04921009  0.99208127     1.73250
Fe1609     Fe  0.16097240  0.01122285  0.93038538     1.54410
O1610       O  0.14791393  0.96893168  0.93716813    -0.79350
O1611       O  0.16775577  0.07711394  0.96185974    -0.77650
O1612       O  0.10812202  0.97291510  0.96240991    -0.81850
O1613       O  0.08886390  0.02016142  0.92694816    -0.76710
O1614       O  0.19831539  0.00249917  0.95365063    -0.78480
O1615       O  0.12289152  0.07323565  0.99955513    -0.81230
C1616       C  0.10132978  0.02191777  0.90357077     0.99540
C1617       C  0.12670041  0.95823707  0.95013400     1.06980
O1618       O  0.13991198  0.02461379  0.96352320    -1.10210
O1619       O  0.14824563  0.02270056  0.02415406    -0.72640
O1620       O  0.10545849  0.00855910  0.01063213    -0.76130
O1621       O  0.12787524  0.01865699  0.90132754    -0.76820
C1622       C  0.12501578  0.01067168  0.02863990     0.98440
O1623       O  0.08859227  0.05558137  0.97329670    -0.74770
O1624       O  0.19651312  0.03091698  0.99065978    -0.79970
C1625       C  0.17253826  0.07565271  0.93578305     1.01070
C1626       C  0.20920985  0.01301805  0.97589158     1.06980
O1627       O  0.17343552  0.05274129  0.92164170    -0.75610
C1628       C  0.09902690  0.07479316  0.98823041     1.05280
Fe1629     Fe  0.84913791  0.21664483  0.21869618     1.65780
Fe1630     Fe  0.90700797  0.23958430  0.18357940     1.73250
Fe1631     Fe  0.90886610  0.17729807  0.22071314     1.54410
O1632       O  0.89602790  0.18322256  0.26329752    -0.79350
O1633       O  0.91585144  0.20961689  0.15509041    -0.77650
O1634       O  0.85720566  0.20992248  0.26023522    -0.81850
O1635       O  0.83651203  0.17594982  0.21295768    -0.76710
O1636       O  0.94691150  0.19985428  0.22963710    -0.78480
O1637       O  0.87197767  0.24802549  0.15996173    -0.81230
C1638       C  0.84820141  0.15229749  0.21054351     0.99540
C1639       C  0.87519762  0.19641457  0.27444209     1.06980
O1640       O  0.88859774  0.21113385  0.20812377    -1.10210
O1641       O  0.89863270  0.27148566  0.21065610    -0.72640
O1642       O  0.85580666  0.25874005  0.22553235    -0.76130
O1643       O  0.87477230  0.14925434  0.21304011    -0.76820
C1644       C  0.87585682  0.27623271  0.22342061     0.98440
O1645       O  0.83726433  0.22256491  0.17816068    -0.74770
O1646       O  0.94586200  0.23710545  0.20146383    -0.79970
C1647       C  0.92008334  0.18345830  0.15610311     1.01070
C1648       C  0.95829135  0.22204383  0.21928743     1.06980
O1649       O  0.92089524  0.16900093  0.17884782    -0.75610
C1650       C  0.84787736  0.23707774  0.15870624     1.05280
Fe1651     Fe  0.97456250  0.09184241  0.01703562     1.65780
Fe1652     Fe  0.99830391  0.14966583  0.05156530     1.73250
Fe1653     Fe  0.93672603  0.15242475  0.01348787     1.54410
O1654       O  0.94357107  0.13935611  0.97118221    -0.79350
O1655       O  0.96797598  0.15968266  0.07941602    -0.77650
O1656       O  0.96883014  0.09965680  0.97522302    -0.81850
O1657       O  0.93344646  0.08028382  0.02250222    -0.76710
O1658       O  0.96015026  0.18989789  0.00464578    -0.78480
O1659       O  0.00528485  0.11493053  0.07591777    -0.81230
C1660       C  0.91004081  0.09258312  0.02427311     0.99540
C1661       C  0.95650190  0.11813328  0.96052379     1.06980
O1662       O  0.96986942  0.13156605  0.02689106    -1.10210
O1663       O  0.03054556  0.13994473  0.02525333    -0.72640
O1664       O  0.01699163  0.09729445  0.01071735    -0.76130
O1665       O  0.90770659  0.11912391  0.02096677    -0.76820
C1666       C  0.03496516  0.11691036  0.01286644     0.98440
O1667       O  0.97945982  0.08047051  0.05787052    -0.74770
O1668       O  0.99725100  0.18816573  0.03286791    -0.79970
C1669       C  0.94180531  0.16379482  0.07802262     1.01070
C1670       C  0.98259301  0.20076014  0.01485437     1.06980
O1671       O  0.92773983  0.16461310  0.05508340    -0.75610
C1672       C  0.99374282  0.09114470  0.07740446     1.05280
Fe1673     Fe  0.02286606  0.38858545  0.01798171     1.65780
Fe1674     Fe  0.99931819  0.33064754  0.05306215     1.73250
Fe1675     Fe  0.06078201  0.32793324  0.01434606     1.54410
O1676       O  0.05389214  0.34072683  0.97218681    -0.79350
O1677       O  0.02973008  0.31940667  0.08000650    -0.77650
O1678       O  0.02914826  0.38066687  0.97617099    -0.81850
O1679       O  0.06395699  0.40020625  0.02405779    -0.76710
O1680       O  0.03719151  0.29056318  0.00558509    -0.78480
O1681       O  0.99349346  0.36506511  0.07828281    -0.81230
C1682       C  0.08741799  0.38794467  0.02566983     0.99540
C1683       C  0.04110894  0.36190944  0.96148763     1.06980
O1684       O  0.02764197  0.34885147  0.02811921    -1.10210
O1685       O  0.96660250  0.34118627  0.02794049    -0.72640
O1686       O  0.98062313  0.38288971  0.01119996    -0.76130
O1687       O  0.08979875  0.36141937  0.02189827    -0.76820
C1688       C  0.96240000  0.36369133  0.01460841     0.98440
O1689       O  0.01691286  0.40047794  0.05861160    -0.74770
O1690       O  0.99956215  0.29262151  0.03331574    -0.79970
C1691       C  0.05583551  0.31518168  0.07834603     1.01070
C1692       C  0.01438019  0.27996777  0.01538760     1.06980
O1693       O  0.06998313  0.31526122  0.05546453    -0.75610
C1694       C  0.00370027  0.38951268  0.07882574     1.05280
Fe1695     Fe  0.14767420  0.26248776  0.21675501     1.65780
Fe1696     Fe  0.09010788  0.23697505  0.18291002     1.73250
Fe1697     Fe  0.08630469  0.29906925  0.22001870     1.54410
O1698       O  0.09881507  0.29272731  0.26232241    -0.79350
O1699       O  0.07986193  0.26662431  0.15461654    -0.77650
O1700       O  0.13971086  0.26938812  0.25859822    -0.81850
O1701       O  0.15856160  0.30369325  0.20995425    -0.76710
O1702       O  0.04892697  0.27534599  0.22873409    -0.78480
O1703       O  0.12492324  0.22972630  0.15873731    -0.81230
C1704       C  0.14578520  0.32689107  0.20862023     0.99540
C1705       C  0.12048070  0.28086843  0.27315592     1.06980
O1706       O  0.10781691  0.26617299  0.20699787    -1.10210
O1707       O  0.10021118  0.20567143  0.20980639    -0.72640
O1708       O  0.14262808  0.22022571  0.22421007    -0.76130
O1709       O  0.11927077  0.32865458  0.21267355    -0.76820
C1710       C  0.12326320  0.20193475  0.22227011     0.98440
O1711       O  0.15929433  0.25621546  0.17595411    -0.74770
O1712       O  0.05140378  0.23765939  0.20137005    -0.79970
C1713       C  0.07569731  0.29280462  0.15571166     1.01070
C1714       C  0.03839049  0.25256521  0.21891861     1.06980
O1715       O  0.07460770  0.30725864  0.17838617    -0.75610
C1716       C  0.14871599  0.24116201  0.15689065     1.05280
Fe1717     Fe  0.77172383  0.71621557  0.64077934     1.65780
Fe1718     Fe  0.74790630  0.68149406  0.58307673     1.73250
Fe1719     Fe  0.80990242  0.71904985  0.58017589     1.54410
O1720       O  0.80346708  0.76154646  0.59309280    -0.79350
O1721       O  0.77785813  0.65342642  0.57311563    -0.77650
O1722       O  0.77799307  0.75791882  0.63278737    -0.81850
O1723       O  0.81277125  0.71049830  0.65260683    -0.76710
O1724       O  0.78666020  0.72772002  0.54239271    -0.78480
O1725       O  0.74054687  0.65739902  0.61794114    -0.81230
C1726       C  0.83626761  0.70846663  0.64042595     0.99540
C1727       C  0.79058476  0.77243499  0.61428115     1.06980
O1728       O  0.77654096  0.70604257  0.60108570    -1.10210
O1729       O  0.71597640  0.70809588  0.59248909    -0.72640
O1730       O  0.72933380  0.72290518  0.63508419    -0.76130
O1731       O  0.83873836  0.71150537  0.61379740    -0.76820
C1732       C  0.71150238  0.72073890  0.61535779     0.98440
O1733       O  0.76631262  0.67550068  0.65238181    -0.74770
O1734       O  0.74927929  0.69977506  0.54442217    -0.79970
C1735       C  0.80397498  0.65457048  0.56861665     1.01070
C1736       C  0.76418189  0.71744015  0.53155119     1.06980
O1737       O  0.81841144  0.67733266  0.56797811    -0.75610
C1738       C  0.75199398  0.65595969  0.64174239     1.05280
Fe1739     Fe  0.89500296  0.51373601  0.51582645     1.65780
Fe1740     Fe  0.83788824  0.54913585  0.49105589     1.73250
Fe1741     Fe  0.83386639  0.51193019  0.55322017     1.54420
O1742       O  0.84600480  0.46942861  0.54733222    -0.79350
O1743       O  0.82726352  0.57731563  0.52078830    -0.77650
O1744       O  0.88623982  0.47229372  0.52275497    -0.81850
O1745       O  0.90625673  0.52023243  0.55689655    -0.76710
O1746       O  0.79667893  0.50298063  0.52935642    -0.78480
O1747       O  0.87307800  0.57336764  0.48465911    -0.81230
C1748       C  0.89374614  0.52242843  0.58021361     0.99540
C1749       C  0.86716037  0.45817712  0.53491196     1.06980
O1750       O  0.85539627  0.52458776  0.52004186    -1.10210
O1751       O  0.84805900  0.52277197  0.45918433    -0.72640
O1752       O  0.88964130  0.50628561  0.47369232    -0.76130
O1753       O  0.86711354  0.51936678  0.58240254    -0.76820
C1754       C  0.87051993  0.50925753  0.45537903     0.98440
O1755       O  0.90771157  0.55400916  0.50930692    -0.74770
O1756       O  0.79925914  0.53012527  0.49142417    -0.79970
C1757       C  0.82312820  0.57638058  0.54698005     1.01070
C1758       C  0.78637929  0.51231227  0.50625729     1.06980
O1759       O  0.82219216  0.55371129  0.56146946    -0.75610
C1760       C  0.89737617  0.57389448  0.49521825     1.05280
Fe1761     Fe  0.77324412  0.33983895  0.26775978     1.65780
Fe1762     Fe  0.80741068  0.39792092  0.24368583     1.73250
Fe1763     Fe  0.76969608  0.40054981  0.30560926     1.54410
O1764       O  0.72734765  0.38722760  0.29917713    -0.79350
O1765       O  0.83539413  0.40827853  0.27359745    -0.77650
O1766       O  0.73137507  0.34731726  0.27422333    -0.81850
O1767       O  0.77909933  0.32820709  0.30874170    -0.76710
O1768       O  0.76073796  0.43823770  0.28214359    -0.78480
O1769       O  0.83185746  0.36335249  0.23638651    -0.81230
C1770       C  0.78058102  0.34041287  0.33221531     0.99540
C1771       C  0.71665824  0.36578461  0.28661983     1.06980
O1772       O  0.78301812  0.37966454  0.27240084    -1.10210
O1773       O  0.78085717  0.38811984  0.21188561    -0.72640
O1774       O  0.76637997  0.34543568  0.22550389    -0.76130
O1775       O  0.77722929  0.36699831  0.33461049    -0.76820
C1776       C  0.76831572  0.36515923  0.20762737     0.98440
O1777       O  0.81412959  0.32857793  0.26209171    -0.74770
O1778       O  0.78877073  0.43640467  0.24479854    -0.79970
C1779       C  0.83416349  0.41283076  0.29970968     1.01070
C1780       C  0.77092419  0.44913439  0.25958491     1.06980
O1781       O  0.81134628  0.41315717  0.31413616    -0.75610
C1782       C  0.83353041  0.33946721  0.24765464     1.05280
Fe1783     Fe  0.97396073  0.46671120  0.39126883     1.65780
Fe1784     Fe  0.93980907  0.49114314  0.33370168     1.73250
Fe1785     Fe  0.97670766  0.42890597  0.33064054     1.54410
O1786       O  0.01902271  0.43477490  0.34378420    -0.79350
O1787       O  0.91126750  0.46144234  0.32382115    -0.77650
O1788       O  0.01566375  0.46088646  0.38302258    -0.81850
O1789       O  0.96836867  0.42553026  0.40259380    -0.76710
O1790       O  0.98658418  0.45236201  0.29380279    -0.78480
O1791       O  0.91580706  0.49860879  0.36860047    -0.81230
C1792       C  0.96550169  0.40231257  0.39011669     0.99540
C1793       C  0.03002039  0.44810593  0.36453652     1.06980
O1794       O  0.96394171  0.46222566  0.35162686    -1.10210
O1795       O  0.96684598  0.52275862  0.34322782    -0.72640
O1796       O  0.98048444  0.50915337  0.38611435    -0.76130
O1797       O  0.96822739  0.40002587  0.36354081    -0.76820
C1798       C  0.97895471  0.52707307  0.36639727     0.98440
O1799       O  0.93310835  0.47176122  0.40266789    -0.74770
O1800       O  0.95850584  0.48962741  0.29527327    -0.79970
C1801       C  0.91226256  0.43531719  0.31929794     1.01070
C1802       C  0.97678250  0.47495113  0.28304249     1.06980
O1803       O  0.93501638  0.42094008  0.31810279    -0.75610
C1804       C  0.91388551  0.48656351  0.39211130     1.05280
Fe1805     Fe  0.22429699  0.26320889  0.34655094     1.65780
Fe1806     Fe  0.24435531  0.30222431  0.40297928     1.73250
Fe1807     Fe  0.18439586  0.26223265  0.40539654     1.54410
O1808       O  0.15782894  0.26421338  0.36949268    -0.79350
O1809       O  0.24876667  0.27837229  0.43829374    -0.77650
O1810       O  0.18549564  0.27606841  0.33340393    -0.81850
O1811       O  0.21046072  0.22287141  0.35329179    -0.76710
O1812       O  0.17238168  0.30416808  0.41273415    -0.78480
O1813       O  0.27913343  0.28215219  0.38723005    -0.81230
C1814       C  0.20252933  0.20820879  0.37404752     0.99540
C1815       C  0.16138310  0.27239803  0.34407127     1.06980
O1816       O  0.21774503  0.27569466  0.38517418    -1.10210
O1817       O  0.24277987  0.32987663  0.37007706    -0.72640
O1818       O  0.23922884  0.30136369  0.33316848    -0.76130
O1819       O  0.19428570  0.21931028  0.39724200    -0.76820
C1820       C  0.24272579  0.32538318  0.34396693     0.98440
O1821       O  0.26349063  0.24959255  0.35709752    -0.74770
O1822       O  0.21337207  0.32581156  0.42063196    -0.79970
C1823       C  0.23123848  0.26512213  0.45323158     1.01070
C1824       C  0.18694625  0.32603787  0.41833834     1.06980
O1825       O  0.20634447  0.25916139  0.44459791    -0.75610
C1826       C  0.28269189  0.26091213  0.37161113     1.05280
Fe1827     Fe  0.09992313  0.47018284  0.46947938     1.65780
Fe1828     Fe  0.15652031  0.43281230  0.49238293     1.73250
Fe1829     Fe  0.15960974  0.46997858  0.43095387     1.54410
O1830       O  0.12469816  0.46773406  0.40341915    -0.79350
O1831       O  0.19096234  0.45797610  0.49697207    -0.77650
O1832       O  0.08798667  0.45673726  0.43038459    -0.81850
O1833       O  0.10773412  0.51035608  0.45559315    -0.76710
O1834       O  0.16543203  0.42749312  0.42080802    -0.78480
O1835       O  0.13936264  0.45332596  0.52614538    -0.81230
C1836       C  0.12892290  0.52452971  0.44773586     0.99540
C1837       C  0.09933035  0.45945282  0.40647406     1.06980
O1838       O  0.13881074  0.45802547  0.46448808    -1.10210
O1839       O  0.12419900  0.40455236  0.49080753    -0.72640
O1840       O  0.08670469  0.43185105  0.48404920    -0.76130
O1841       O  0.15195460  0.51305132  0.43960802    -0.76820
C1842       C  0.09802314  0.40831390  0.48904556     0.98440
O1843       O  0.10837074  0.48427785  0.50912429    -0.74770
O1844       O  0.17570697  0.40861221  0.46247883    -0.79970
C1845       C  0.20636909  0.46976167  0.47881121     1.01070
C1846       C  0.17100351  0.40641888  0.43642120     1.06980
O1847       O  0.19845685  0.47339144  0.45326785    -0.75610
C1848       C  0.12266165  0.47379399  0.52895412     1.05280
Fe1849     Fe  0.27278327  0.76542460  0.34300461     1.65780
Fe1850     Fe  0.24808673  0.79927339  0.40095039     1.73250
Fe1851     Fe  0.31057443  0.76261879  0.40370308     1.54410
O1852       O  0.30458279  0.72025227  0.39062872    -0.79350
O1853       O  0.27756568  0.82737328  0.41160466    -0.77650
O1854       O  0.27931212  0.72377148  0.35091805    -0.81850
O1855       O  0.31383094  0.77171055  0.33125105    -0.76710
O1856       O  0.28718442  0.75334127  0.44138801    -0.78480
O1857       O  0.24099224  0.82379872  0.36622992    -0.81230
C1858       C  0.33723040  0.77412084  0.34343917     0.99540
C1859       C  0.29177762  0.70933338  0.36950261     1.06980
O1860       O  0.27719194  0.77536235  0.38280191    -1.10210
O1861       O  0.21653980  0.77257471  0.39104812    -0.72640
O1862       O  0.23046291  0.75829969  0.34842095    -0.76130
O1863       O  0.33957617  0.77092707  0.37007952    -0.76820
C1864       C  0.21239869  0.76022471  0.36801014     0.98440
O1865       O  0.26697053  0.80612149  0.33159481    -0.74770
O1866       O  0.24918588  0.78038674  0.43934730    -0.79970
C1867       C  0.30364379  0.82656125  0.41615474     1.01070
C1868       C  0.26435365  0.76297173  0.45217143     1.06980
O1869       O  0.31850313  0.80413707  0.41636456    -0.75610
C1870       C  0.25240283  0.82544286  0.34233698     1.05280
Fe1871     Fe  0.38984454  0.97039840  0.46271241     1.65780
Fe1872     Fe  0.33283474  0.93716007  0.48993488     1.73250
Fe1873     Fe  0.32909677  0.96941348  0.42498282     1.54410
O1874       O  0.34055702  0.01226175  0.42837041    -0.79350
O1875       O  0.32285833  0.90673274  0.46225411    -0.77650
O1876       O  0.38065775  0.01114905  0.45317744    -0.81850
O1877       O  0.40126071  0.96085488  0.42211230    -0.76710
O1878       O  0.29187846  0.97970863  0.44764418    -0.78480
O1879       O  0.36778435  0.91368658  0.49860663    -0.81230
C1880       C  0.38886298  0.95667145  0.39903826     0.99540
C1881       C  0.36124280  0.02437366  0.44065888     1.06980
O1882       O  0.35036254  0.95936124  0.45916978    -1.10210
O1883       O  0.34242085  0.96618662  0.51974351    -0.72640
O1884       O  0.38443808  0.98086423  0.50443850    -0.76130
O1885       O  0.36234842  0.95991982  0.39651528    -0.76820
C1886       C  0.36509432  0.97958237  0.52284712     0.98440
O1887       O  0.40225386  0.93049029  0.47180468    -0.74770
O1888       O  0.29459702  0.95565530  0.48757527    -0.79970
C1889       C  0.31932922  0.90572708  0.43597276     1.01070
C1890       C  0.28178360  0.97205450  0.47137771     1.06980
O1891       O  0.31800315  0.92719629  0.41984073    -0.75610
C1892       C  0.39171506  0.91177161  0.48736756     1.05280
Fe1893     Fe  0.72496923  0.63824955  0.76594849     1.65780
Fe1894     Fe  0.68980941  0.58071724  0.74177767     1.73250
Fe1895     Fe  0.72767158  0.57726213  0.80348611     1.54420
O1896       O  0.77011541  0.58976668  0.79706602    -0.79350
O1897       O  0.66200679  0.57019246  0.77189382    -0.77650
O1898       O  0.76660795  0.63015752  0.77293908    -0.81850
O1899       O  0.71825702  0.64967590  0.80696753    -0.76710
O1900       O  0.73630797  0.53978759  0.77963600    -0.78480
O1901       O  0.66542088  0.61545029  0.73519265    -0.81230
C1902       C  0.71663697  0.63730569  0.83038930     0.99540
C1903       C  0.78106939  0.61123906  0.78486228     1.06980
O1904       O  0.71452311  0.59854708  0.77041315    -1.10210
O1905       O  0.71594306  0.59077974  0.70962046    -0.72640
O1906       O  0.73250928  0.63250623  0.72381166    -0.76130
O1907       O  0.72033252  0.61074182  0.83266758    -0.76820
C1908       C  0.72944569  0.61324298  0.70560641     0.98440
O1909       O  0.68450829  0.65053567  0.75938657    -0.74770
O1910       O  0.70857180  0.54226172  0.74221374    -0.79970
C1911       C  0.66327082  0.56591305  0.79803427     1.01070
C1912       C  0.72637598  0.52933473  0.75681931     1.06980
O1913       O  0.68607334  0.56523851  0.81226803    -0.75610
C1914       C  0.66468681  0.63981517  0.74548269     1.05280
Fe1915     Fe  0.52320855  0.51415086  0.89084007     1.65780
Fe1916     Fe  0.55830206  0.48930217  0.83376674     1.73250
Fe1917     Fe  0.52076687  0.55115597  0.82961802     1.54410
O1918       O  0.47819083  0.54510317  0.84246973    -0.79350
O1919       O  0.58664988  0.51915434  0.82412944    -0.77650
O1920       O  0.48153891  0.52041532  0.88259289    -0.81850
O1921       O  0.52911539  0.55532894  0.90179687    -0.76710
O1922       O  0.51216114  0.52743771  0.79239252    -0.78480
O1923       O  0.58181005  0.48192627  0.86924064    -0.81230
C1924       C  0.53126670  0.57850676  0.88909662     0.99540
C1925       C  0.46714487  0.53270169  0.86385811     1.06980
O1926       O  0.53364088  0.51821192  0.85115032    -1.10210
O1927       O  0.53125852  0.45768995  0.84321482    -0.72640
O1928       O  0.51648837  0.47179615  0.88569018    -0.76130
O1929       O  0.52822756  0.58049714  0.86250308    -0.76820
C1930       C  0.51864476  0.45364664  0.86623234     0.98440
O1931       O  0.56375711  0.50866294  0.90300872    -0.74770
O1932       O  0.54060407  0.49049640  0.79459286    -0.79970
C1933       C  0.58540115  0.54516518  0.81907570     1.01070
C1934       C  0.52275404  0.50512144  0.78163683     1.06980
O1935       O  0.56255915  0.55935752  0.81751344    -0.75610
C1936       C  0.58304821  0.49351376  0.89305801     1.05280
Fe1937     Fe  0.64598546  0.76426194  0.71724238     1.65780
Fe1938     Fe  0.58803197  0.74022123  0.68266548     1.73250
Fe1939     Fe  0.58495285  0.80172257  0.72112091     1.54420
O1940       O  0.59868108  0.79537566  0.76327978    -0.79350
O1941       O  0.57573701  0.77036818  0.65548113    -0.77650
O1942       O  0.63842055  0.77036628  0.75906067    -0.81850
O1943       O  0.65710460  0.80537010  0.71136841    -0.76710
O1944       O  0.54800067  0.77785124  0.73055237    -0.78480
O1945       O  0.62241854  0.73470922  0.65724262    -0.81230
C1946       C  0.64467376  0.82870820  0.70967157     0.99540
C1947       C  0.62001505  0.78267268  0.77386650     1.06980
O1948       O  0.60612369  0.76877241  0.70729559    -1.10210
O1949       O  0.59923579  0.70761155  0.70798057    -0.72640
O1950       O  0.64093696  0.72205157  0.72413141    -0.76130
O1951       O  0.61807069  0.83093831  0.71296152    -0.76820
C1952       C  0.62190572  0.70365436  0.72111942     0.98440
O1953       O  0.65773480  0.75847280  0.67656848    -0.74770
O1954       O  0.55011866  0.74027967  0.70278217    -0.79970
C1955       C  0.57008377  0.79623111  0.65721377     1.01070
C1956       C  0.53741707  0.75511384  0.72068093     1.06980
O1957       O  0.57086958  0.81044273  0.68007503    -0.75610
C1958       C  0.64684710  0.74497634  0.65656397     1.05280
Fe1959     Fe  0.51608343  0.88814501  0.51436085     1.65780
Fe1960     Fe  0.55217400  0.82654263  0.51554898     1.73250
Fe1961     Fe  0.48878880  0.83264055  0.55025363     1.54420
O1962       O  0.48194736  0.86867020  0.57262149    -0.79350
O1963       O  0.52863012  0.79036128  0.50667909    -0.77650
O1964       O  0.51002332  0.90161644  0.55460751    -0.81850
O1965       O  0.47360602  0.88453913  0.50760279    -0.76710
O1966       O  0.51734349  0.82240675  0.58017444    -0.78480
O1967       O  0.54762467  0.83756451  0.47254366    -0.81230
C1968       C  0.45460927  0.86597748  0.51001328     0.99540
C1969       C  0.49396949  0.89226494  0.57362498     1.06980
O1970       O  0.51900219  0.84888246  0.52639470    -1.10210
O1971       O  0.58164611  0.85853781  0.52349215    -0.72640
O1972       O  0.55769089  0.89835524  0.52031848    -0.76130
O1973       O  0.45794810  0.84269459  0.52232320    -0.76820
C1974       C  0.58029205  0.88517869  0.52478852     0.98440
O1975       O  0.52224587  0.87736081  0.47302298    -0.74770
O1976       O  0.55843309  0.81531409  0.55777404    -0.79970
C1977       C  0.50546044  0.78045715  0.51568891     1.01070
C1978       C  0.54337801  0.81704625  0.58005830     1.06980
O1979       O  0.48978678  0.79359084  0.53254434    -0.75610
C1980       C  0.53459358  0.85757384  0.46000815     1.05280
Fe1981     Fe  0.35028903  0.26690955  0.76615447     1.65780
Fe1982     Fe  0.40778883  0.24151942  0.80006447     1.73250
Fe1983     Fe  0.41124891  0.30443130  0.76412995     1.54420
O1984       O  0.39833985  0.29900535  0.72138907    -0.79350
O1985       O  0.41846508  0.27066368  0.82902044    -0.77650
O1986       O  0.35837203  0.27397223  0.72449601    -0.81850
O1987       O  0.33902323  0.30783531  0.77279462    -0.76710
O1988       O  0.44867764  0.28107815  0.75478355    -0.78480
O1989       O  0.37304288  0.23416873  0.82417655    -0.81230
C1990       C  0.35141698  0.33112107  0.77525762     0.99540
C1991       C  0.37707225  0.28654385  0.71018956     1.06980
O1992       O  0.39002580  0.27099236  0.77635650    -1.10210
O1993       O  0.39762448  0.21024485  0.77272933    -0.72640
O1994       O  0.35526308  0.22476985  0.75848669    -0.76130
O1995       O  0.37802657  0.33342802  0.77228375    -0.76820
C1996       C  0.37457691  0.20649582  0.76016890     0.98440
O1997       O  0.33866795  0.26058330  0.80684532    -0.74770
O1998       O  0.44616601  0.24275357  0.78136674    -0.79970
C1999       C  0.42297503  0.29682812  0.82865262     1.01070
C2000       C  0.45912510  0.25805593  0.76413569     1.06980
O2001       O  0.42343767  0.31184515  0.80622018    -0.75610
C2002       C  0.34929117  0.24566291  0.82596540     1.05280
Fe2003     Fe  0.47462307  0.38971420  0.96996962     1.65780
Fe2004     Fe  0.49939927  0.33191476  0.93578478     1.73250
Fe2005     Fe  0.43666586  0.32897531  0.97213683     1.54420
O2006       O  0.44246617  0.34168431  0.01469165    -0.79350
O2007       O  0.47002284  0.32102466  0.90718673    -0.77650
O2008       O  0.46770872  0.38151803  0.01155058    -0.81850
O2009       O  0.43367547  0.40128725  0.96363218    -0.76710
O2010       O  0.45986521  0.29145781  0.98142182    -0.78480
O2011       O  0.50638730  0.36655513  0.91130831    -0.81230
C2012       C  0.41027400  0.38904283  0.96137595     0.99540
C2013       C  0.45517068  0.36278963  0.02581762     1.06980
O2014       O  0.47019068  0.34998418  0.95968709    -1.10210
O2015       O  0.53096629  0.34216248  0.96260685    -0.72640
O2016       O  0.51678242  0.38446759  0.97741855    -0.76130
O2017       O  0.40784234  0.36243811  0.96432570    -0.76820
C2018       C  0.53491781  0.36504530  0.97538637     0.98440
O2019       O  0.48091472  0.40138810  0.92932385    -0.74770
O2020       O  0.49836961  0.29368416  0.95501211    -0.79970
C2021       C  0.44378807  0.31698583  0.90767637     1.01070
C2022       C  0.48298846  0.28091995  0.97236767     1.06980
O2023       O  0.42883885  0.31687483  0.93016244    -0.75610
C2024       C  0.49525233  0.39052271  0.90984295     1.05280
Fe2025     Fe  0.26953718  0.34528385  0.21832124     1.65780
Fe2026     Fe  0.30379324  0.40355124  0.24128482     1.73250
Fe2027     Fe  0.26816575  0.40415100  0.17943768     1.54410
O2028       O  0.27081771  0.36828858  0.15271155    -0.79350
O2029       O  0.27626366  0.43613886  0.24564435    -0.77650
O2030       O  0.28573476  0.33338118  0.18005374    -0.81850
O2031       O  0.22985724  0.35040764  0.20189772    -0.76710
O2032       O  0.31088449  0.41087571  0.16970278    -0.78480
O2033       O  0.28411902  0.38443555  0.27486172    -0.81230
C2034       C  0.21457213  0.37125599  0.19547065     0.99540
C2035       C  0.28096714  0.34358496  0.15594207     1.06980
O2036       O  0.28016420  0.38444133  0.21321125    -1.10210
O2037       O  0.33389611  0.37307083  0.23963444    -0.72640
O2038       O  0.30738543  0.33456338  0.23570030    -0.76130
O2039       O  0.22506219  0.39527831  0.18862451    -0.76820
C2040       C  0.33059555  0.34677658  0.24018398     0.98440
O2041       O  0.25288668  0.35416919  0.25696018    -0.74770
O2042       O  0.32694939  0.42476310  0.21148009    -0.79970
C2043       C  0.26702510  0.45203556  0.22651755     1.01070
C2044       C  0.33083853  0.41897708  0.18576702     1.06980
O2045       O  0.26478569  0.44380331  0.20085459    -0.75610
C2046       C  0.26356580  0.36763758  0.27728697     1.05280
Fe2047     Fe  0.47657828  0.46810739  0.09602308     1.65780
Fe2048     Fe  0.44021644  0.49158798  0.15327564     1.73250
Fe2049     Fe  0.47617130  0.42945055  0.15575753     1.54420
O2050       O  0.47337011  0.40191754  0.12084774    -0.79350
O2051       O  0.46573245  0.49543457  0.18739223    -0.77650
O2052       O  0.46320759  0.42894701  0.08406510    -0.81850
O2053       O  0.51682778  0.45446086  0.10353655    -0.76710
O2054       O  0.43349212  0.41985118  0.16284783    -0.78480
O2055       O  0.46123169  0.52522896  0.13603426    -0.81230
C2056       C  0.53096948  0.44634675  0.12458830     0.99540
C2057       C  0.46555531  0.40501890  0.09537213     1.06980
O2058       O  0.46460544  0.46320192  0.13510491    -1.10210
O2059       O  0.41168747  0.49078853  0.12138461    -0.72640
O2060       O  0.43807770  0.48247696  0.08341857    -0.76130
O2061       O  0.51941398  0.43781202  0.14751236    -0.76820
C2062       C  0.41493640  0.48837954  0.09518948     0.98440
O2063       O  0.49079003  0.50789759  0.10383382    -0.74770
O2064       O  0.41531047  0.46206433  0.17256255    -0.79970
C2065       C  0.47661703  0.47679414  0.20277678     1.01070
C2066       C  0.41280398  0.43577777  0.16927797     1.06980
O2067       O  0.47991616  0.45133328  0.19462439    -0.75610
C2068       C  0.48104064  0.52789351  0.11843669     1.05280
Fe2069     Fe  0.34740026  0.22150644  0.26816550     1.65780
Fe2070     Fe  0.40531236  0.24369222  0.30387915     1.73250
Fe2071     Fe  0.40714181  0.18389569  0.26409081     1.54420
O2072       O  0.37244481  0.15597454  0.26582339    -0.79350
O2073       O  0.43887726  0.24929154  0.27768714    -0.77650
O2074       O  0.33645768  0.18165219  0.28096755    -0.81850
O2075       O  0.35431635  0.20924938  0.22683592    -0.76710
O2076       O  0.41380447  0.17176004  0.30489785    -0.78480
O2077       O  0.38755718  0.27816937  0.28532040    -0.81230
C2078       C  0.37554223  0.20264818  0.21186311     0.99540
C2079       C  0.34785716  0.15806315  0.27642228     1.06980
O2080       O  0.38670100  0.21670133  0.27839823    -1.10210
O2081       O  0.37420593  0.24123242  0.33345029    -0.72640
O2082       O  0.33565366  0.23445946  0.30767518    -0.76130
O2083       O  0.39893872  0.19486406  0.22238602    -0.76820
C2084       C  0.34792676  0.23925177  0.33079946     0.98440
O2085       O  0.35502461  0.26187597  0.25547952    -0.74770
O2086       O  0.42502069  0.21247379  0.32553359    -0.79970
C2087       C  0.45415593  0.23121097  0.26568084     1.01070
C2088       C  0.42012143  0.18635472  0.32624776     1.06980
O2089       O  0.44595166  0.20593445  0.26137141    -0.75610
C2090       C  0.37004452  0.28141308  0.26562923     1.05280
Fe2091     Fe  0.46511857  0.08758720  0.46559947     1.65780
Fe2092     Fe  0.43041498  0.14993424  0.46626642     1.73250
Fe2093     Fe  0.49189099  0.14309730  0.42876755     1.54420
O2094       O  0.52448340  0.12612619  0.45092637    -0.79350
O2095       O  0.42043881  0.15848355  0.42499921    -0.77650
O2096       O  0.50595427  0.09224550  0.47796938    -0.81850
O2097       O  0.47717962  0.07315651  0.42690963    -0.76710
O2098       O  0.49667551  0.17919132  0.45201774    -0.78480
O2099       O  0.40054234  0.11717624  0.46309532    -0.81230
C2100       C  0.48598812  0.08396736  0.40427240     0.99540
C2101       C  0.52637941  0.10705382  0.46934420     1.06980
O2102       O  0.46269109  0.12697943  0.45369950    -1.10210
O2103       O  0.43908300  0.14156941  0.50858670    -0.72640
O2104       O  0.45355556  0.09685581  0.50636931    -0.76130
O2105       O  0.49135909  0.10978307  0.40133749    -0.76820
C2106       C  0.44713889  0.11878109  0.52019638     0.98440
O2107       O  0.42506725  0.07864842  0.45325371    -0.74770
O2108       O  0.45421169  0.18726544  0.47012607    -0.79970
C2109       C  0.43601633  0.16216981  0.40358780     1.01070
C2110       C  0.47940205  0.19490540  0.46474606     1.06980
O2111       O  0.46253628  0.16087588  0.40368295    -0.75610
C2112       C  0.40207503  0.09174256  0.45482938     1.05280
C2113       C  0.42110136  0.17351609  0.35294572    -0.10940
C2114       C  0.42399825  0.16757260  0.37711232    -0.12500
C2115       C  0.35346041  0.32937367  0.24740684    -0.10940
C2116       C  0.36540053  0.30884901  0.25532881    -0.12500
C2117       C  0.38456702  0.42480450  0.17225998    -0.10940
C2118       C  0.35947364  0.42131965  0.17563131    -0.12500
C2119       C  0.45567937  0.36756505  0.05595526    -0.10940
C2120       C  0.45967766  0.38101555  0.07737068    -0.12500
C2121       C  0.43142275  0.31307440  0.88053093    -0.10940
C2122       C  0.42713062  0.30900522  0.85586646    -0.12500
C2123       C  0.56255872  0.80900125  0.63113894    -0.10940
C2124       C  0.55581885  0.81332316  0.60713917    -0.12500
C2125       C  0.50769184  0.42678423  0.87203255    -0.10940
C2126       C  0.50070894  0.40722755  0.88598076    -0.12500
C2127       C  0.61208753  0.55815849  0.81542624    -0.10940
C2128       C  0.63662888  0.56232035  0.81116226    -0.12500
C2129       C  0.64132881  0.65707322  0.73946513    -0.10940
C2130       C  0.62773004  0.67671300  0.73200106    -0.12500
C2131       C  0.36431743  0.05457274  0.44144251    -0.10940
C2132       C  0.37733407  0.07577639  0.44712786    -0.12500
C2133       C  0.40850976  0.88808189  0.49355767    -0.10940
C2134       C  0.42770875  0.87333671  0.49997885    -0.12500
C2135       C  0.31578304  0.85337957  0.42061329    -0.10940
C2136       C  0.31799914  0.87813700  0.42471615    -0.12500
C2137       C  0.25364263  0.36113647  0.30462168    -0.10940
C2138       C  0.24759948  0.34802688  0.32520633    -0.12500
C2139       C  0.31025461  0.25071885  0.36752727    -0.10940
C2140       C  0.33062381  0.24399710  0.35453690    -0.12500
C2141       C  0.17159255  0.37830880  0.42524297    -0.10940
C2142       C  0.17436736  0.35331901  0.42140875    -0.12500
C2143       C  0.08149807  0.45340419  0.38246172    -0.10940
C2144       C  0.06011706  0.44904530  0.36914930    -0.12500
C2145       C  0.88542314  0.42230581  0.31612185    -0.10940
C2146       C  0.86088374  0.41741655  0.31243556    -0.12500
C2147       C  0.87611940  0.49831110  0.42850382    -0.10940
C2148       C  0.88994719  0.49159860  0.40878802    -0.12500
C2149       C  0.82021116  0.60321476  0.55992670    -0.10940
C2150       C  0.81669618  0.62781209  0.56450030    -0.12500
C2151       C  0.74687036  0.63219198  0.65864010    -0.10940
C2152       C  0.74024894  0.61864656  0.67859386    -0.12500
C2153       C  0.68450129  0.73187270  0.62043505    -0.10940
C2154       C  0.66424437  0.73921978  0.63321246    -0.12500
C2155       C  0.18434172  0.36559987  0.19719908    -0.10940
C2156       C  0.16327095  0.35150577  0.20205227    -0.12500
C2157       C  0.12507504  0.28023903  0.30331415    -0.10940
C2158       C  0.13781012  0.27700012  0.32525320    -0.12500
C2159       C  0.06900573  0.31068618  0.10465338    -0.10940
C2160       C  0.07281277  0.30586268  0.12907380    -0.12500
C2161       C  0.00407590  0.25203438  0.00733494    -0.10940
C2162       C  0.99270822  0.22887213  0.00715266    -0.12500
C2163       C  0.98676858  0.23147290  0.22666983    -0.10940
C2164       C  0.01016509  0.24244172  0.22651546    -0.12500
C2165       C  0.87102728  0.30316852  0.23468770    -0.10940
C2166       C  0.85740156  0.32280954  0.24204665    -0.12500
C2167       C  0.92380823  0.17070202  0.12925493    -0.10940
C2168       C  0.92841374  0.16694834  0.10466758    -0.12500
C2169       C  0.06196500  0.11144211  0.00188948    -0.10940
C2170       C  0.08181445  0.09815164  0.99438203    -0.12500
C2171       C  0.31293906  0.23195025  0.86315420    -0.10940
C2172       C  0.33247440  0.23971832  0.84960982    -0.12500
C2173       C  0.18129494  0.12666349  0.91850807    -0.10940
C2174       C  0.17668059  0.10219042  0.92265308    -0.12500
C2175       C  0.10544353  0.99366726  0.07568822    -0.10940
C2176       C  0.11915269  0.00035797  0.05580419    -0.12500
C2177       C  0.00570723  0.05422073  0.11442778    -0.10940
C2178       C  0.99885153  0.07422568  0.10113237    -0.12500
C2179       C  0.24052912  0.86276137  0.30545388    -0.10940
C2180       C  0.24703010  0.84918248  0.32542836    -0.12500
C2181       C  0.13602417  0.92041319  0.17458958    -0.10940
C2182       C  0.11133667  0.92394592  0.17034697    -0.12500
C2183       C  0.12369632  0.19727771  0.80493190    -0.10940
C2184       C  0.13730899  0.20146616  0.82640760    -0.12500
C2185       C  0.06531466  0.17367499  0.62935725    -0.10940
C2186       C  0.06044258  0.16978519  0.60460363    -0.12500
C2187       C  0.54238622  0.61613137  0.92827488    -0.10940
C2188       C  0.53770566  0.60277843  0.90681073    -0.12500
C2189       C  0.49806718  0.57563621  0.09942199    -0.10940
C2190       C  0.49137539  0.55523029  0.11251889    -0.12500
C2191       C  0.57205382  0.67160298  0.12794707    -0.10940
C2192       C  0.56891402  0.66874526  0.10289721    -0.12500
C2193       C  0.23636591  0.00269111  0.25008351    -0.10940
C2194       C  0.23632583  0.97997232  0.23801035    -0.12500
C2195       C  0.31068803  0.11844133  0.28776460    -0.10940
C2196       C  0.33109710  0.13323149  0.28299516    -0.12500
C2197       C  0.20869467  0.15626661  0.35618232    -0.10940
C2198       C  0.20399565  0.17786471  0.36938865    -0.12500
C2199       C  0.14297298  0.15566952  0.24018351    -0.10940
C2200       C  0.12912095  0.17519837  0.23324103    -0.12500
C2201       C  0.01063190  0.99683111  0.25325309    -0.10940
C2202       C  0.01114173  0.98534093  0.23025220    -0.12500
C2203       C  0.13395973  0.06426162  0.30785368    -0.10940
C2204       C  0.10911389  0.06044236  0.31199736    -0.12500
C2205       C  0.03268882  0.10425920  0.40650127    -0.10940
C2206       C  0.03690712  0.11739115  0.42821328    -0.12500
C2207       C  0.11732137  0.48393619  0.55634124    -0.10940
C2208       C  0.10436343  0.49006192  0.57692177    -0.12500
C2209       C  0.91176195  0.52886605  0.60439011    -0.10940
C2210       C  0.93329381  0.53344097  0.61777679    -0.12500
C2211       C  0.13338727  0.56330601  0.67600771    -0.10940
C2212       C  0.10854140  0.55944382  0.67214555    -0.12500
C2213       C  0.11152292  0.40610550  0.03232627    -0.10940
C2214       C  0.12483254  0.42766783  0.03726339    -0.12500
C2215       C  0.20345153  0.80634948  0.11609117    -0.10940
C2216       C  0.20879038  0.82778691  0.12936028    -0.12500
C2217       C  0.17934028  0.63008871  0.06503002    -0.10940
C2218       C  0.17636716  0.60486285  0.06210589    -0.12500
C2219       C  0.57373934  0.08692339  0.48587475    -0.10940
C2220       C  0.55336467  0.09998513  0.47940262    -0.12500
C2221       C  0.61892109  0.92269975  0.53791540    -0.10940
C2222       C  0.60474840  0.90208155  0.53226678    -0.12500
C2223       C  0.67777387  0.12285404  0.56213321    -0.10940
C2224       C  0.67284752  0.09828684  0.55733262    -0.12500
C2225       C  0.23727899  0.50731142  0.99917727    -0.10940
C2226       C  0.26095303  0.50749697  0.98908756    -0.12500
C2227       C  0.41549891  0.59976491  0.99430904    -0.10940
C2228       C  0.43614333  0.61245167  0.00058347    -0.12500
C2229       C  0.43699199  0.53248979  0.86907912    -0.10940
C2230       C  0.41548971  0.52927055  0.88275380    -0.12500
C2231       C  0.37890674  0.50055568  0.05710486    -0.10940
C2232       C  0.39186055  0.49373097  0.07738938    -0.12500
C2233       C  0.37328105  0.42912402  0.95054340    -0.10940
C2234       C  0.38631899  0.40735696  0.95501288    -0.12500
C2235       C  0.25219201  0.72893727  0.98073880    -0.10940
C2236       C  0.24174691  0.72899282  0.00423684    -0.12500
C2237       C  0.31978820  0.60529603  0.92563641    -0.10940
C2238       C  0.31568196  0.63020619  0.92202412    -0.12500
C2239       C  0.23856609  0.62135581  0.80763345    -0.10940
C2240       C  0.24542311  0.63466929  0.82769739    -0.12500
C2241       C  0.80732053  0.11607798  0.20030149    -0.10940
C2242       C  0.82929580  0.12878400  0.20453152    -0.12500
C2243       C  0.63420395  0.05907731  0.17303156    -0.10940
C2244       C  0.60946419  0.05449927  0.16990070    -0.12500
C2245       C  0.23186914  0.98099066  0.49386702    -0.10940
C2246       C  0.25431987  0.98092866  0.48144971    -0.12500
C2247       C  0.10430647  0.99195600  0.40752757    -0.10940
C2248       C  0.11735988  0.98464340  0.42751067    -0.12500
C2249       C  0.10429091  0.07567948  0.52911341    -0.10940
C2250       C  0.11794925  0.05436191  0.53283936    -0.12500
C2251       C  0.25431031  0.75544202  0.48048037    -0.10940
C2252       C  0.24283119  0.75580516  0.50367875    -0.12500
C2253       C  0.17997890  0.85530920  0.56275935    -0.10940
C2254       C  0.17546349  0.87984510  0.55813247    -0.12500
C2255       C  0.20461813  0.68008966  0.62001829    -0.10940
C2256       C  0.20833341  0.65860959  0.63364318    -0.12500
C2257       C  0.75210183  0.22090520  0.48115725    -0.10940
C2258       C  0.74232515  0.22048259  0.50487354    -0.12500
C2259       C  0.78633712  0.32199173  0.35628411    -0.10940
C2260       C  0.79018644  0.30003300  0.36924131    -0.12500
C2261       C  0.85549202  0.19919761  0.32566342    -0.10940
C2262       C  0.86957156  0.19604040  0.30445773    -0.12500
C2263       C  0.74228849  0.13037428  0.32667955    -0.10940
C2264       C  0.73479723  0.11852540  0.30595354    -0.12500
C2265       C  0.75544247  0.00060407  0.48608865    -0.10940
C2266       C  0.73156317  0.00064882  0.49591746    -0.12500
C2267       C  0.92923186  0.10817039  0.50037510    -0.10940
C2268       C  0.90922713  0.09423061  0.49434072    -0.12500
C2269       C  0.91198238  0.02565994  0.38215594    -0.10940
C2270       C  0.93349175  0.03042476  0.36876840    -0.12500
C2271       C  0.81652453  0.09830214  0.42439668    -0.10940
C2272       C  0.81338873  0.12330090  0.42071855    -0.12500
C2273       C  0.49741739  0.24736151  0.47305273    -0.10940
C2274       C  0.48887632  0.22319582  0.47177916    -0.12500
C2275       C  0.50666554  0.24869968  0.25845386    -0.10940
C2276       C  0.48260494  0.23994512  0.25870294    -0.12500
C2277       C  0.66064329  0.23390591  0.35150032    -0.10940
C2278       C  0.68128246  0.22761208  0.36424035    -0.12500
C2279       C  0.66491357  0.34699188  0.28268303    -0.10940
C2280       C  0.68654663  0.36032626  0.28622848    -0.12500
C2281       C  0.63489593  0.15382308  0.24360016    -0.10940
C2282       C  0.62185566  0.17398383  0.25094860    -0.12500
C2283       C  0.56312013  0.30825477  0.35510086    -0.10940
C2284       C  0.55697770  0.31198414  0.37939598    -0.12500
C2285       C  0.25805067  0.47887288  0.49824003    -0.10940
C2286       C  0.23450282  0.47754402  0.48814894    -0.12500
C2287       C  0.40377244  0.38020250  0.49197733    -0.10940
C2288       C  0.42334977  0.36576143  0.48582217    -0.12500
C2289       C  0.25117358  0.25895146  0.50509904    -0.10940
C2290       C  0.24058868  0.25852954  0.48169942    -0.12500
C2291       C  0.18442314  0.25313045  0.62239382    -0.10940
C2292       C  0.16404270  0.24573035  0.63498034    -0.12500
C2293       C  0.35856233  0.28274455  0.65838177    -0.10940
C2294       C  0.37202405  0.28635479  0.67995011    -0.12500
C2295       C  0.31609982  0.35665586  0.56104915    -0.10940
C2296       C  0.31866904  0.38168114  0.55753690    -0.12500
C2297       C  0.48276799  0.49514762  0.25492875    -0.10940
C2298       C  0.48324261  0.48536392  0.23128942    -0.12500
C2299       C  0.48489952  0.40512922  0.38652691    -0.10940
C2300       C  0.48085150  0.42591271  0.37314162    -0.12500
C2301       C  0.38799285  0.49022807  0.40746121    -0.10940
C2302       C  0.37555161  0.48254667  0.42793994    -0.12500
C2303       C  0.26129577  0.48103513  0.23486466    -0.10940
C2304       C  0.26208321  0.50481126  0.24461801    -0.12500
C2305       C  0.28690965  0.65795395  0.35095885    -0.10940
C2306       C  0.29106673  0.67924407  0.36455200    -0.12500
C2307       C  0.25395419  0.62272961  0.17678136    -0.10940
C2308       C  0.24677954  0.63565042  0.15656124    -0.12500
C2309       C  0.36059430  0.56486062  0.30770687    -0.10940
C2310       C  0.38541658  0.56125464  0.31184429    -0.12500
C2311       C  0.48745674  0.72871645  0.50712552    -0.10940
C2312       C  0.49639786  0.75257173  0.50782610    -0.12500
C2313       C  0.45549857  0.61454742  0.42892923    -0.10940
C2314       C  0.45951371  0.60104779  0.40755907    -0.12500
C2315       C  0.38681344  0.57433475  0.52968991    -0.10940
C2316       C  0.37310977  0.55327356  0.53434500    -0.12500
C2317       C  0.48594596  0.73423672  0.72818308    -0.10940
C2318       C  0.50931103  0.74511418  0.72843097    -0.12500
C2319       C  0.33117812  0.62868455  0.70474455    -0.10940
C2320       C  0.30938178  0.61572234  0.70041666    -0.12500
C2321       C  0.33022725  0.74276848  0.63531978    -0.10940
C2322       C  0.31040752  0.75023024  0.62201942    -0.12500
C2323       C  0.37113820  0.69914221  0.80507763    -0.10940
C2324       C  0.35778044  0.70342763  0.82658018    -0.12500
C2325       C  0.42689411  0.67142059  0.62983724    -0.10940
C2326       C  0.43177596  0.66660876  0.60540348    -0.12500
C2327       C  0.73555747  0.50224002  0.48405844    -0.10940
C2328       C  0.75866076  0.50356915  0.49557269    -0.12500
C2329       C  0.58219234  0.59776639  0.49190028    -0.10940
C2330       C  0.56246095  0.61177095  0.49854785    -0.12500
C2331       C  0.55982257  0.53121867  0.36499701    -0.10940
C2332       C  0.58152630  0.52619891  0.37777259    -0.12500
C2333       C  0.61287302  0.42600839  0.45014543    -0.10940
C2334       C  0.59786518  0.40545115  0.45427161    -0.12500
C2335       C  0.74289799  0.72368657  0.47995783    -0.10940
C2336       C  0.75423919  0.72450042  0.50315413    -0.12500
C2337       C  0.68200116  0.62319034  0.41640926    -0.10940
C2338       C  0.67700747  0.59853566  0.42005358    -0.12500
C2339       C  0.63697837  0.69988842  0.32481503    -0.10940
C2340       C  0.62354347  0.69626738  0.30316001    -0.12500
C2341       C  0.51535501  0.48450376  0.72978238    -0.10940
C2342       C  0.51556234  0.49525748  0.75325938    -0.12500
C2343       C  0.60646253  0.48783479  0.57263614    -0.10940
C2344       C  0.61925973  0.49597013  0.55270973    -0.12500
C2345       C  0.53324786  0.36093766  0.55547410    -0.10940
C2346       C  0.53074512  0.37451587  0.57712508    -0.12500
C2347       C  0.51087726  0.55233467  0.60922183    -0.10940
C2348       C  0.50367229  0.57225515  0.59593091    -0.12500
C2349       C  0.43579927  0.45040164  0.61386486    -0.10940
C2350       C  0.41423447  0.45407017  0.60045753    -0.12500
C2351       C  0.73402387  0.47835480  0.73428537    -0.10940
C2352       C  0.73412288  0.50136190  0.74609174    -0.12500
C2353       C  0.63499130  0.41515713  0.67193935    -0.10940
C2354       C  0.61026794  0.41884393  0.66785481    -0.12500
C2355       C  0.71043345  0.32126242  0.62980153    -0.10940
C2356       C  0.70626374  0.29910606  0.61726863    -0.12500
C2357       C  0.98566489  0.49669040  0.23248506    -0.10940
C2358       C  0.98538782  0.48521159  0.25545585    -0.12500
C2359       C  0.99157280  0.42680529  0.11572991    -0.10940
C2360       C  0.99840529  0.40673012  0.10241245    -0.12500
C2361       C  0.08320502  0.52876094  0.10532236    -0.10940
C2362       C  0.06159348  0.53265841  0.11850201    -0.12500
C2363       C  0.76390671  0.50051073  0.23768635    -0.10940
C2364       C  0.76349419  0.47740429  0.24935629    -0.12500
C2365       C  0.88644528  0.55814481  0.16994911    -0.10940
C2366       C  0.86172108  0.56215783  0.17328067    -0.12500
C2367       C  0.75825734  0.61638073  0.30603575    -0.10940
C2368       C  0.75150202  0.62983990  0.32594180    -0.12500
C2369       C  0.68684560  0.61652704  0.20012013    -0.10940
C2370       C  0.66546251  0.63033615  0.20332300    -0.12500
C2371       C  0.23153531  0.48012740  0.74979530    -0.10940
C2372       C  0.23121181  0.50371803  0.73950188    -0.12500
C2373       C  0.14064139  0.32503889  0.74218334    -0.10940
C2374       C  0.12727378  0.30498169  0.73528976    -0.12500
C2375       C  0.23983109  0.36440298  0.67972186    -0.10940
C2376       C  0.24677632  0.35225339  0.65892766    -0.12500
C2377       C  0.33322645  0.35506936  0.78186128    -0.10940
C2378       C  0.31136760  0.36790121  0.78640831    -0.12500
C2379       C  0.20792385  0.30184372  0.86629747    -0.10940
C2380       C  0.21144498  0.32361295  0.85321708    -0.12500
C2381       C  0.01276575  0.48558429  0.75564802    -0.10940
C2382       C  0.01228445  0.49560368  0.73190002    -0.12500
C2383       C  0.03579604  0.37972523  0.90979348    -0.10940
C2384       C  0.03989242  0.36658725  0.93136683    -0.12500
C2385       C  0.10532195  0.49220099  0.91060783    -0.10940
C2386       C  0.11840834  0.49885834  0.93092794    -0.12500
C2387       C  0.11016084  0.42146915  0.81657884    -0.10940
C2388       C  0.13514333  0.41792671  0.81326669    -0.12500
C2389       C  0.50469002  0.22991349  0.98090540    -0.10940
C2390       C  0.49311599  0.25297224  0.98063508    -0.12500
C2391       C  0.54020209  0.11142771  0.05576863    -0.10940
C2392       C  0.53626577  0.09731712  0.07689384    -0.12500
C2393       C  0.51011831  0.23614658  0.75706695    -0.10940
C2394       C  0.48719032  0.24790093  0.75649060    -0.12500
C2395       C  0.57230190  0.17509919  0.85782410    -0.10940
C2396       C  0.56876915  0.17092031  0.88253615    -0.12500
C2397       C  0.62625514  0.30430726  0.74987347    -0.10940
C2398       C  0.63972581  0.32406590  0.74262851    -0.12500
C2399       C  0.63821668  0.19940999  0.66024170    -0.10940
C2400       C  0.62491359  0.19670964  0.68199959    -0.12500
C2401       C  0.48687267  0.74671880  0.22345724    -0.10940
C2402       C  0.51032812  0.73606105  0.22387606    -0.12500
C2403       C  0.36862904  0.67982995  0.23104418    -0.10940
C2404       C  0.35519772  0.65969606  0.23755931    -0.12500
C2405       C  0.37441989  0.78593077  0.30324611    -0.10940
C2406       C  0.36122340  0.78101147  0.32499033    -0.12500
C2407       C  0.33329592  0.85436570  0.20212093    -0.10940
C2408       C  0.31144821  0.86725964  0.19855164    -0.12500
C2409       C  0.32994173  0.74197795  0.13333376    -0.10940
C2410       C  0.30913957  0.73517548  0.12118105    -0.12500
C2411       C  0.49403676  0.75260642  0.00327827    -0.10940
C2412       C  0.50422296  0.72901319  0.00444518    -0.12500
C2413       C  0.50696367  0.92326705  0.11005319    -0.10940
C2414       C  0.50000364  0.90336668  0.09657201    -0.12500
C2415       C  0.43239013  0.81471649  0.10031348    -0.10940
C2416       C  0.42875558  0.81194024  0.12552310    -0.12500
C2417       C  0.26089675  0.00644429  0.99623867    -0.10940
C2418       C  0.23753031  0.00588157  0.98548482    -0.12500
C2419       C  0.37586302  0.92900342  0.02946379    -0.10940
C2420       C  0.38946501  0.90766451  0.02544607    -0.12500
C2421       C  0.41427649  0.02597656  0.10330523    -0.10940
C2422       C  0.43564223  0.02964922  0.11696809    -0.12500
C2423       C  0.41604421  0.09976570  0.99084969    -0.10940
C2424       C  0.43610384  0.11316143  0.98425766    -0.12500
C2425       C  0.24482881  0.22395619  0.98034745    -0.10940
C2426       C  0.25603831  0.22406421  0.00354040    -0.12500
C2427       C  0.18519550  0.22798823  0.11943710    -0.10940
C2428       C  0.16552570  0.23515423  0.13317058    -0.12500
C2429       C  0.28985005  0.30377299  0.11822293    -0.10940
C2430       C  0.28628968  0.32512013  0.13201447    -0.12500
C2431       C  0.36034263  0.20790021  0.15915013    -0.10940
C2432       C  0.37180011  0.20444179  0.18168949    -0.12500
C2433       C  0.25141254  0.13277532  0.16089893    -0.10940
C2434       C  0.24467826  0.11957997  0.18114796    -0.12500
C2435       C  0.32549928  0.10398769  0.06056172    -0.10940
C2436       C  0.32233428  0.12872349  0.06512734    -0.12500
C2437       C  0.10807393  0.90671847  0.95497457    -0.10940
C2438       C  0.12158854  0.92814804  0.95109978    -0.12500
C2439       C  0.04149413  0.86517889  0.05565798    -0.10940
C2440       C  0.03704930  0.87867224  0.07709900    -0.12500
C2441       C  0.18379628  0.73505912  0.86327250    -0.10940
C2442       C  0.16348023  0.74209109  0.85039594    -0.12500
C2443       C  0.12690000  0.67940001  0.75234302    -0.10940
C2444       C  0.13942942  0.65867425  0.74600085    -0.12500
C2445       C  0.13466237  0.78141965  0.65763255    -0.10940
C2446       C  0.12168115  0.78598782  0.67945068    -0.12500
C2447       C  0.06948874  0.81133587  0.85539616    -0.10940
C2448       C  0.06606910  0.81392333  0.88050954    -0.12500
C2449       C  0.93459532  0.86964342  0.98428782    -0.10940
C2450       C  0.91406139  0.88228332  0.99120836    -0.12500
C2451       C  0.93596701  0.94819249  0.11605513    -0.10940
C2452       C  0.91445210  0.95190633  0.10267888    -0.12500
C2453       C  0.87277319  0.05283759  0.03531996    -0.10940
C2454       C  0.88594418  0.07446317  0.03060416    -0.12500
C2455       C  0.66461184  0.74196927  0.13254565    -0.10940
C2456       C  0.68533712  0.74903011  0.12026162    -0.12500
C2457       C  0.78737182  0.65543118  0.13046959    -0.10940
C2458       C  0.79186931  0.67715747  0.11729279    -0.12500
C2459       C  0.82073033  0.87732708  0.06016874    -0.10940
C2460       C  0.81761104  0.85222879  0.06332636    -0.12500
C2461       C  0.99726710  0.90482290  0.88471004    -0.10940
C2462       C  0.99086520  0.92529720  0.87171147    -0.12500
C2463       C  0.06192826  0.03264099  0.86600079    -0.10940
C2464       C  0.08343288  0.02813487  0.87934983    -0.12500
C2465       C  0.87904293  0.98058928  0.92911721    -0.10940
C2466       C  0.89196246  0.98701181  0.90860493    -0.12500
C2467       C  0.96123720  0.09913146  0.90916937    -0.10940
C2468       C  0.95735962  0.11283757  0.93046730    -0.12500
C2469       C  0.75016190  0.12835729  0.66036858    -0.10940
C2470       C  0.75716121  0.11617645  0.68105478    -0.12500
C2471       C  0.66395194  0.12926078  0.78348395    -0.10940
C2472       C  0.68541344  0.11569159  0.78780230    -0.12500
C2473       C  0.88547636  0.05684242  0.81744758    -0.10940
C2474       C  0.86041669  0.06044092  0.81462706    -0.12500
C2475       C  0.99301332  0.72845291  0.97859566    -0.10940
C2476       C  0.00312689  0.75210244  0.97840850    -0.12500
C2477       C  0.99906203  0.57380400  0.88727997    -0.10940
C2478       C  0.00566559  0.55351744  0.87415665    -0.12500
C2479       C  0.06111107  0.61051970  0.98674378    -0.10940
C2480       C  0.08163180  0.59779021  0.99332480    -0.12500
C2481       C  0.95503956  0.61611146  0.05755306    -0.10940
C2482       C  0.96006733  0.60268499  0.07891918    -0.12500
C2483       C  0.98632065  0.73685980  0.75863700    -0.10940
C2484       C  0.00978514  0.74743887  0.75844235    -0.12500
C2485       C  0.92670429  0.67162297  0.85629335    -0.10940
C2486       C  0.92998348  0.66802638  0.88135324    -0.12500
C2487       C  0.81120953  0.61617129  0.78434340    -0.10940
C2488       C  0.83277187  0.62959321  0.78088733    -0.12500
C2489       C  0.87357878  0.69764610  0.68044584    -0.10940
C2490       C  0.86028051  0.70220945  0.65881304    -0.12500
C2491       C  0.98931655  0.25285331  0.50666973    -0.10940
C2492       C  0.99856060  0.22895645  0.50655421    -0.12500
C2493       C  0.00487170  0.42697106  0.61299332    -0.10940
C2494       C  0.99798167  0.40674675  0.59987613    -0.12500
C2495       C  0.07973512  0.38535217  0.49386894    -0.10940
C2496       C  0.05928455  0.37219765  0.50009303    -0.12500
C2497       C  0.95320220  0.36527831  0.42949571    -0.10940
C2498       C  0.95841947  0.37836021  0.40799302    -0.12500
C2499       C  0.88481140  0.40656029  0.53050581    -0.10940
C2500       C  0.87151826  0.42805011  0.53434966    -0.12500
C2501       C  0.98579083  0.24600539  0.72832555    -0.10940
C2502       C  0.00949272  0.23627277  0.72834877    -0.12500
C2503       C  0.81285253  0.22653036  0.62082475    -0.10940
C2504       C  0.83268885  0.23420475  0.63409650    -0.12500
C2505       C  0.83125757  0.34902070  0.70297549    -0.10940
C2506       C  0.81009188  0.36279703  0.69889938    -0.12500
C2507       C  0.85664576  0.15477084  0.74245014    -0.10940
C2508       C  0.86934079  0.17515962  0.73521680    -0.12500
C2509       C  0.92812545  0.31190949  0.60475439    -0.10940
C2510       C  0.92496357  0.30779101  0.62965787    -0.12500
C2511       C  0.98269333  0.99551589  0.75360137    -0.10940
C2512       C  0.98247395  0.98573192  0.72982201    -0.12500
C2513       C  0.98638076  0.05423862  0.61192878    -0.10940
C2514       C  0.99242947  0.07468492  0.59878827    -0.12500
C2515       C  0.06011443  0.94836036  0.61687187    -0.10940
C2516       C  0.08145985  0.95309786  0.60332504    -0.12500
C2517       C  0.87500685  0.99446185  0.55621444    -0.10940
C2518       C  0.88838187  0.98891872  0.57670952    -0.12500
C2519       C  0.76280918  0.97784025  0.73948965    -0.10940
C2520       C  0.76276079  0.00125754  0.75011225    -0.12500
C2521       C  0.86074165  0.91765782  0.67511939    -0.10940
C2522       C  0.88566617  0.92101302  0.67121332    -0.12500
C2523       C  0.85499175  0.82363907  0.74600649    -0.10940
C2524       C  0.86810264  0.80345009  0.75288985    -0.12500
C2525       C  0.78620522  0.82386185  0.63328151    -0.10940
C2526       C  0.79003611  0.80254686  0.61953868    -0.12500
C2527       C  0.66286366  0.85284719  0.70372174    -0.10940
C2528       C  0.68475716  0.86583115  0.69973065    -0.12500
C2529       C  0.51189057  0.98728503  0.22862406    -0.10940
C2530       C  0.51090813  0.97648585  0.25200566    -0.12500
C2531       C  0.61123566  0.98547382  0.43152083    -0.10940
C2532       C  0.59780808  0.97937835  0.41124770    -0.12500
C2533       C  0.49959687  0.04473249  0.36957297    -0.10940
C2534       C  0.49189607  0.06529952  0.38178139    -0.12500
C2535       C  0.42806517  0.94063131  0.36275437    -0.10940
C2536       C  0.40672236  0.94740247  0.37558500    -0.12500
C2537       C  0.52875558  0.87028374  0.40683115    -0.10940
C2538       C  0.53331018  0.85934299  0.42952738    -0.12500
C2539       C  0.72969517  0.97842807  0.24776798    -0.10940
C2540       C  0.72990273  0.00219080  0.23792281    -0.12500
C2541       C  0.73935565  0.86154663  0.17617026    -0.10940
C2542       C  0.74672518  0.84856707  0.15596796    -0.12500
C2543       C  0.63956499  0.82423556  0.23712562    -0.10940
C2544       C  0.62702359  0.80362044  0.23061938    -0.12500
C2545       C  0.70580106  0.79935152  0.36304891    -0.10940
C2546       C  0.70884955  0.82074363  0.34916192    -0.12500
C2547       C  0.63102446  0.91033893  0.30632308    -0.10940
C2548       C  0.60587092  0.91192918  0.31060649    -0.12500
C2549       C  0.73772044  0.97603395  0.98539877    -0.10940
C2550       C  0.76114670  0.97561367  0.99598397    -0.12500
C2551       C  0.58294673  0.88425339  0.99037311    -0.10940
C2552       C  0.56257883  0.87121946  0.99701067    -0.12500
C2553       C  0.61900472  0.98181073  0.05399880    -0.10940
C2554       C  0.60623130  0.98724008  0.07493117    -0.12500
C2555       C  0.62547853  0.05525783  0.94850294    -0.10940
C2556       C  0.61210472  0.07663139  0.95387781    -0.12500
C2557       C  0.74352426  0.75467686  0.98019709    -0.10940
C2558       C  0.75390291  0.75452749  0.00370505    -0.12500
C2559       C  0.68156908  0.85365886  0.91846884    -0.10940
C2560       C  0.67827129  0.87886535  0.92118230    -0.12500
C2561       C  0.81191039  0.74839124  0.86390087    -0.10940
C2562       C  0.83248429  0.74128654  0.85145822    -0.12500
C2563       C  0.70536385  0.67707714  0.86781522    -0.10940
C2564       C  0.71012722  0.65544837  0.85455355    -0.12500
C2565       C  0.62545647  0.78200446  0.80393276    -0.10940
C2566       C  0.63904840  0.77826805  0.82532403    -0.12500
C2567       C  0.74931273  0.84803067  0.82779006    -0.10940
C2568       C  0.75577799  0.86089408  0.80727670    -0.12500
C2569       C  0.74592356  0.34830228  0.82517037    -0.10940
C2570       C  0.73904040  0.36147125  0.80501516    -0.12500
C2571       C  0.85897048  0.27804437  0.82691067    -0.10940
C2572       C  0.87186219  0.28216335  0.80498632    -0.12500
C2573       C  0.68327848  0.25101670  0.86533078    -0.10940
C2574       C  0.66361783  0.24437725  0.85145505    -0.12500
C2575       C  0.78568816  0.15665698  0.85431247    -0.10940
C2576       C  0.78905505  0.17833161  0.86754524    -0.12500
C2577       C  0.93524857  0.36911563  0.00421948    -0.10940
C2578       C  0.91518105  0.38238823  0.99746452    -0.12500
C2579       C  0.93490102  0.44718799  0.86951761    -0.10940
C2580       C  0.91351390  0.45171637  0.88311140    -0.12500
C2581       C  0.89163442  0.48794127  0.07879523    -0.10940
C2582       C  0.87762829  0.48098945  0.05929996    -0.12500
C2583       C  0.87425475  0.55225078  0.95391575    -0.10940
C2584       C  0.88742671  0.57391568  0.95748355    -0.12500
C2585       C  0.82118424  0.37749710  0.92698557    -0.10940
C2586       C  0.81705434  0.35307656  0.92199490    -0.12500
C2587       C  0.99024611  0.55390870  0.37189640    -0.10940
C2588       C  0.99774821  0.57371440  0.38522280    -0.12500
C2589       C  0.11202644  0.57641736  0.45412910    -0.10940
C2590       C  0.12504693  0.55484968  0.44924363    -0.12500
C2591       C  0.93536263  0.61034217  0.48294973    -0.10940
C2592       C  0.91511855  0.59705541  0.48951049    -0.12500
C2593       C  0.03990151  0.61427911  0.55527313    -0.10940
C2594       C  0.03537513  0.60105804  0.57683279    -0.12500
C2595       C  0.18542032  0.74951233  0.36247566    -0.10940
C2596       C  0.16523698  0.74318762  0.34921794    -0.12500
C2597       C  0.16315857  0.63073382  0.27952338    -0.10940
C2598       C  0.18487377  0.61764658  0.28376885    -0.12500
C2599       C  0.12734490  0.80661902  0.25080021    -0.10940
C2600       C  0.14125500  0.82617846  0.24370297    -0.12500
C2601       C  0.13585146  0.70522899  0.15811746    -0.10940
C2602       C  0.12256169  0.70136868  0.17969016    -0.12500
C2603       C  0.07107646  0.67480126  0.35558670    -0.10940
C2604       C  0.06729621  0.66996685  0.38017464    -0.12500
C2605       C  0.73706596  0.47649857  0.00154040    -0.10940
C2606       C  0.76028617  0.47607082  0.99044516    -0.12500
C2607       C  0.61921067  0.48125700  0.93117801    -0.10940
C2608       C  0.60612618  0.48770469  0.91081061    -0.12500
C2609       C  0.62294276  0.55409077  0.03549098    -0.10940
C2610       C  0.60969889  0.57546816  0.03062624    -0.12500
C2611       C  0.58141929  0.38407904  0.99418596    -0.10940
C2612       C  0.56165367  0.37063698  0.98679952    -0.12500
C2613       C  0.58302736  0.45328696  0.10777409    -0.10940
C2614       C  0.56135672  0.44812088  0.12067179    -0.12500
C2615       C  0.75202847  0.25607796  0.98152916    -0.10940
C2616       C  0.74055791  0.25605058  0.00463890    -0.12500
C2617       C  0.74937121  0.34677980  0.16100145    -0.10940
C2618       C  0.75695455  0.35992480  0.18085011    -0.12500
C2619       C  0.62159393  0.28231416  0.18121619    -0.10940
C2620       C  0.63458905  0.27820681  0.15941832    -0.12500
C2621       C  0.83064865  0.24283478  0.13529107    -0.10940
C2622       C  0.81048926  0.24930391  0.12197743    -0.12500
C2623       C  0.70701359  0.15658726  0.13238212    -0.10940
C2624       C  0.70359114  0.17810351  0.11887996    -0.12500
C2625       C  0.67901193  0.35429769  0.06813751    -0.10940
C2626       C  0.67521623  0.37903917  0.06443012    -0.12500
C2627       C  0.38395692  0.99847224  0.56951450    -0.10940
C2628       C  0.37073853  0.99192585  0.54925915    -0.12500
C2629       C  0.45646808  0.10560814  0.57256096    -0.10940
C2630       C  0.45042253  0.11665915  0.55036471    -0.12500
C2631       C  0.48738889  0.91027493  0.59617737    -0.10940
C2632       C  0.47967063  0.93023711  0.60907918    -0.12500
C2633       C  0.55588273  0.03176223  0.61390796    -0.10940
C2634       C  0.57771519  0.02677262  0.60154912    -0.12500
C2635       C  0.25124049  0.13204477  0.82432426    -0.10940
C2636       C  0.25752506  0.11901659  0.80392806    -0.12500
C2637       C  0.18419456  0.11803467  0.69899206    -0.10940
C2638       C  0.16261527  0.13115024  0.70278002    -0.12500
C2639       C  0.28946127  0.18184913  0.61589450    -0.10940
C2640       C  0.28420086  0.16005049  0.62850553    -0.12500
C2641       C  0.36855578  0.17986697  0.74863589    -0.10940
C2642       C  0.35466272  0.16038151  0.74125150    -0.12500
C2643       C  0.38276347  0.06794990  0.66332934    -0.10940
C2644       C  0.35808049  0.07102444  0.66703671    -0.12500
C2645       C  0.26340042  0.98099889  0.74506968    -0.10940
C2646       C  0.26315012  0.00399046  0.73329983    -0.12500
C2647       C  0.35575399  0.82475827  0.73977805    -0.10940
C2648       C  0.36895788  0.80457428  0.73303637    -0.12500
C2649       C  0.28666358  0.82761018  0.85403184    -0.10940
C2650       C  0.29095949  0.80586858  0.86720642    -0.12500
C2651       C  0.25661628  0.86365285  0.67819147    -0.10940
C2652       C  0.24923382  0.85029789  0.65839821    -0.12500
C2653       C  0.18609955  0.86673782  0.78380379    -0.10940
C2654       C  0.16456304  0.85326617  0.78010531    -0.12500
C2655       C  0.48063129  0.98819712  0.74874489    -0.10940
C2656       C  0.47876971  0.99895655  0.72539127    -0.12500
C2657       C  0.39267419  0.99589233  0.90653461    -0.10940
C2658       C  0.37901609  0.00251254  0.92643745    -0.12500
C2659       C  0.46190229  0.88087889  0.90341848    -0.10940
C2660       C  0.45709442  0.86707570  0.92471071    -0.12500
C2661       C  0.49792938  0.07705194  0.88407120    -0.10940
C2662       C  0.49119434  0.05769438  0.86964815    -0.12500
C2663       C  0.58351531  0.95569312  0.87845366    -0.10940
C2664       C  0.56216384  0.95222405  0.86460840    -0.12500
C2665       C  0.38613190  0.92673046  0.81286107    -0.10940
C2666       C  0.36156617  0.92196867  0.80902162    -0.12500
C2667       C  0.99412320  0.75222983  0.47752837    -0.10940
C2668       C  0.00515533  0.72904364  0.47803058    -0.12500
C2669       C  0.00029305  0.90751764  0.38414370    -0.10940
C2670       C  0.00728547  0.92758329  0.37085352    -0.12500
C2671       C  0.88436279  0.90248925  0.45316770    -0.10940
C2672       C  0.87034704  0.92348320  0.44850223    -0.12500
C2673       C  0.06090154  0.86997001  0.48268687    -0.10940
C2674       C  0.08033403  0.88404109  0.48959366    -0.12500
C2675       C  0.95702856  0.86682306  0.55376881    -0.10940
C2676       C  0.96065461  0.88019050  0.57533062    -0.12500
C2677       C  0.98651529  0.74926544  0.25636739    -0.10940
C2678       C  0.00970853  0.73812035  0.25678079    -0.12500
C2679       C  0.86922035  0.67757733  0.25116154    -0.10940
C2680       C  0.85631898  0.65709746  0.24467945    -0.12500
C2681       C  0.85846369  0.77914192  0.15810618    -0.10940
C2682       C  0.87167926  0.78336867  0.17961618    -0.12500
C2683       C  0.80892172  0.86661752  0.28435237    -0.10940
C2684       C  0.83072963  0.85360786  0.27998699    -0.12500
C2685       C  0.83159879  0.73894536  0.34950721    -0.10940
C2686       C  0.81208826  0.73103059  0.36306643    -0.12500
C2687       C  0.92519296  0.80973301  0.35470412    -0.10940
C2688       C  0.92986489  0.81314838  0.37930644    -0.12500
loop_ 
_geom_bond_atom_site_label_1 
_geom_bond_atom_site_label_2 
_geom_bond_distance 
_geom_bond_site_symmetry_2 
_ccdc_geom_bond_type 
Fe1          O17   2.031       .  S
Fe1           O7   2.048       .  S
Fe1          O14   2.057       .  S
Fe1           O6   2.040       .  S
Fe1          O12   1.957       .  S
Fe2           O5   2.008       .  S
Fe2           O9   2.042       .  S
Fe2          O13   2.026       .  S
Fe2          O18   2.029       .  S
Fe2          O12   1.983       .  S
Fe3          O21   2.104       .  S
Fe3           O8   2.135       .  S
Fe3          O15   2.127       .  S
Fe3           O4   2.128       .  S
Fe3          O12   1.969       .  S
O4           C11   1.285       .  A
O5           C19   1.259       .  A
O6           C11   1.267       .  A
O7           C10   1.260       .  A
O8           C20   1.279       .  A
O9           C22   1.258       .  A
C10          O15   1.275       .  A
C10        C2684   1.464       .  S
C11        C2682   1.450       .  S
O13          C16   1.259       .  A
O14          C16   1.268       .  A
C16        C2679   1.409       .  S
O17          C22   1.259       .  A
O18          C20   1.255       .  A
C19          O21   1.280       .  A
C19        C2687   1.422       .  S
C20        C2677   1.460       .  S
C22        C2685   1.407       .  S
Fe23         O39   2.031       .  S
Fe23         O29   2.049       .  S
Fe23         O36   2.056   1_655  S
Fe23         O28   2.042       .  S
Fe23         O34   1.951       .  S
Fe24         O27   2.007       .  S
Fe24         O31   2.050   1_655  S
Fe24         O35   2.021   1_655  S
Fe24         O40   2.038       .  S
Fe24         O34   1.980       .  S
Fe25         O43   2.107       .  S
Fe25         O30   2.122       .  S
Fe25         O37   2.114       .  S
Fe25         O26   2.128       .  S
Fe25         O34   1.962       .  S
O26          C33   1.284       .  A
O27          C41   1.261       .  A
O28          C33   1.266       .  A
O29          C32   1.261       .  A
O30          C42   1.276       .  A
O31          C44   1.259   1_455  A
C32          O37   1.272       .  A
C32        C2671   1.458       .  S
C33        C2675   1.451       .  S
O35          C38   1.259       .  A
O36          C38   1.269       .  A
C38        C2673   1.403       .  S
O39          C44   1.257       .  A
O40          C42   1.257       .  A
C41          O43   1.282       .  A
C41        C2688   1.422       .  S
C42        C2667   1.458       .  S
C44        C2669   1.410   1_655  S
Fe45         O61   2.029       .  S
Fe45         O51   2.047       .  S
Fe45         O58   2.054   1_565  S
Fe45         O50   2.040       .  S
Fe45         O56   1.957       .  S
Fe46         O49   2.016       .  S
Fe46         O53   2.042   1_565  S
Fe46         O57   2.033   1_565  S
Fe46         O62   2.031       .  S
Fe46         O56   1.985       .  S
Fe47         O65   2.107       .  S
Fe47         O52   2.140       .  S
Fe47         O59   2.130       .  S
Fe47         O48   2.140       .  S
Fe47         O56   1.966       .  S
O48          C55   1.288       .  A
O49          C63   1.262       .  A
O50          C55   1.266       .  A
O51          C54   1.259       .  A
O52          C64   1.280       .  A
O53          C66   1.257   1_545  A
C54          O59   1.276       .  A
C54        C2659   1.467       .  S
C55        C2664   1.456       .  S
O57          C60   1.261       .  A
O58          C60   1.268       .  A
C60        C2662   1.410       .  S
O61          C66   1.257       .  A
O62          C64   1.255       .  A
C63          O65   1.282       .  A
C63        C2665   1.426       .  S
C64        C2655   1.463       .  S
C66        C2657   1.407       .  S
Fe67         O83   2.029       .  S
Fe67         O73   2.044       .  S
Fe67         O80   2.050       .  S
Fe67         O72   2.038       .  S
Fe67         O78   1.961       .  S
Fe68         O71   2.010       .  S
Fe68         O75   2.046       .  S
Fe68         O79   2.024       .  S
Fe68         O84   2.036       .  S
Fe68         O78   1.987       .  S
Fe69         O87   2.109       .  S
Fe69         O74   2.143       .  S
Fe69         O81   2.134       .  S
Fe69         O70   2.133       .  S
Fe69         O78   1.968       .  S
O70          C77   1.285       .  A
O71          C85   1.259       .  A
O72          C77   1.265       .  A
O73          C76   1.259       .  A
O74          C86   1.282       .  A
O75          C88   1.258       .  A
C76          O81   1.278       .  A
C76        C2649   1.465       .  S
C77        C2653   1.454       .  S
O79          C82   1.259       .  A
O80          C82   1.267       .  A
C82        C2651   1.405       .  S
O83          C88   1.258       .  A
O84          C86   1.257       .  A
C85          O87   1.281       .  A
C85        C2666   1.426       .  S
C86        C2645   1.467       .  S
C88        C2647   1.410       .  S
Fe89        O105   2.035       .  S
Fe89         O95   2.043       .  S
Fe89        O102   2.052       .  S
Fe89         O94   2.044       .  S
Fe89        O100   1.957       .  S
Fe90         O93   2.000       .  S
Fe90         O97   2.041       .  S
Fe90        O101   2.022       .  S
Fe90        O106   2.032       .  S
Fe90        O100   1.985       .  S
Fe91        O109   2.084       .  S
Fe91         O96   2.143       .  S
Fe91        O103   2.126       .  S
Fe91         O92   2.110       .  S
Fe91        O100   1.973       .  S
O92          C99   1.279       .  A
O93         C107   1.258       .  A
O94          C99   1.267       .  A
O95          C98   1.259       .  A
O96         C108   1.281       .  A
O97         C110   1.256       .  A
C98         O103   1.276       .  A
C98        C2640   1.460       .  S
C99        C2637   1.445       .  S
O101        C104   1.259       .  A
O102        C104   1.268       .  A
C104       C2636   1.404       .  S
O105        C110   1.258       .  A
O106        C108   1.255       .  A
C107        O109   1.275       .  A
C107       C2644   1.411       .  S
C108       C2646   1.467       .  S
C110       C2642   1.410       .  S
Fe111       O127   2.031       .  S
Fe111       O117   2.027       .  S
Fe111       O124   2.038   1_545  S
Fe111       O116   2.043       .  S
Fe111       O122   1.960       .  S
Fe112       O115   1.999   1_565  S
Fe112       O119   2.054       .  S
Fe112       O123   2.025       .  S
Fe112       O128   2.048       .  S
Fe112       O122   1.985   1_565  S
Fe113       O131   2.083       .  S
Fe113       O118   2.125       .  S
Fe113       O125   2.109       .  S
Fe113       O114   2.111       .  S
Fe113       O122   1.976       .  S
O114        C121   1.279       .  A
O115        C129   1.257       .  A
O116        C121   1.266       .  A
O117        C120   1.256       .  A
O118        C130   1.278       .  A
O119        C132   1.260   1_565  A
C120        O125   1.271       .  A
C120       C2629   1.444       .  S
C121       C2633   1.446       .  S
O123        C126   1.259       .  A
O124        C126   1.264       .  A
C126       C2632   1.403       .  S
O127        C132   1.258       .  A
O128        C130   1.260   1_565  A
C129        O131   1.273       .  A
C129       C2643   1.411       .  S
C130       C2656   1.465   1_545  S
C132       C2627   1.412   1_545  S
Fe133       O149   2.029       .  S
Fe133       O139   2.043       .  S
Fe133       O146   2.055       .  S
Fe133       O138   2.038       .  S
Fe133       O144   1.956       .  S
Fe134       O137   2.009       .  S
Fe134       O141   2.043       .  S
Fe134       O145   2.025       .  S
Fe134       O150   2.033       .  S
Fe134       O144   1.983       .  S
Fe135       O153   2.107       .  S
Fe135       O140   2.135       .  S
Fe135       O147   2.120       .  S
Fe135       O136   2.130       .  S
Fe135       O144   1.967       .  S
O136        C143   1.285       .  A
O137        C151   1.260       .  A
O138        C143   1.266       .  A
O139        C142   1.259       .  A
O140        C152   1.279       .  A
O141        C154   1.258       .  A
C142        O147   1.274       .  A
C142       C2620   1.458       .  S
C143       C2624   1.451       .  S
O145        C148   1.259       .  A
O146        C148   1.268       .  A
C148       C2622   1.407       .  S
O149        C154   1.258       .  A
O150        C152   1.256       .  A
C151        O153   1.281       .  A
C151       C2625   1.425       .  S
C152       C2616   1.463       .  S
C154       C2617   1.406       .  S
Fe155       O171   2.030       .  S
Fe155       O161   2.046       .  S
Fe155       O168   2.057   1_554  S
Fe155       O160   2.038       .  S
Fe155       O166   1.957       .  S
Fe156       O159   2.009   1_556  S
Fe156       O163   2.045       .  S
Fe156       O167   2.029       .  S
Fe156       O172   2.033       .  S
Fe156       O166   1.982   1_556  S
Fe157       O175   2.105       .  S
Fe157       O162   2.129       .  S
Fe157       O169   2.120       .  S
Fe157       O158   2.130       .  S
Fe157       O166   1.969       .  S
O158        C165   1.285       .  A
O159        C173   1.260       .  A
O160        C165   1.266       .  A
O161        C164   1.259       .  A
O162        C174   1.278       .  A
O163        C176   1.258       .  A
C164        O169   1.273       .  A
C164       C2613   1.460       .  S
C165       C2609   1.451       .  S
O167        C170   1.260       .  A
O168        C170   1.268       .  A
C170       C2607   1.410       .  S
O171        C176   1.258   1_554  A
O172        C174   1.256   1_556  A
C173        O175   1.280       .  A
C173       C2626   1.424       .  S
C174       C2605   1.459       .  S
C176       C2611   1.408       .  S
Fe177       O193   2.025       .  S
Fe177       O183   2.043       .  S
Fe177       O190   2.048       .  S
Fe177       O182   2.037       .  S
Fe177       O188   1.957       .  S
Fe178       O181   2.013       .  S
Fe178       O185   2.044       .  S
Fe178       O189   2.027       .  S
Fe178       O194   2.035       .  S
Fe178       O188   1.986       .  S
Fe179       O197   2.105       .  S
Fe179       O184   2.132       .  S
Fe179       O191   2.123       .  S
Fe179       O180   2.126       .  S
Fe179       O188   1.967       .  S
O180        C187   1.284       .  A
O181        C195   1.260       .  A
O182        C187   1.266       .  A
O183        C186   1.259       .  A
O184        C196   1.279       .  A
O185        C198   1.259       .  A
C186        O191   1.274       .  A
C186       C2597   1.461       .  S
C187       C2602   1.448       .  S
O189        C192   1.259       .  A
O190        C192   1.266       .  A
C192       C2599   1.405       .  S
O193        C198   1.258       .  A
O194        C196   1.257       .  A
C195        O197   1.280       .  A
C195       C2603   1.427       .  S
C196       C2678   1.461       .  S
C198       C2596   1.405       .  S
Fe199       O215   2.031       .  S
Fe199       O205   2.045       .  S
Fe199       O212   2.056   1_455  S
Fe199       O204   2.041       .  S
Fe199       O210   1.956       .  S
Fe200       O203   2.010   1_655  S
Fe200       O207   2.046       .  S
Fe200       O211   2.029       .  S
Fe200       O216   2.033   1_655  S
Fe200       O210   1.981   1_655  S
Fe201       O219   2.110       .  S
Fe201       O206   2.124       .  S
Fe201       O213   2.115       .  S
Fe201       O202   2.135       .  S
Fe201       O210   1.968       .  S
O202        C209   1.286       .  A
O203        C217   1.260       .  A
O204        C209   1.266       .  A
O205        C208   1.259       .  A
O206        C218   1.277       .  A
O207        C220   1.258   1_655  A
C208        O213   1.272       .  A
C208       C2589   1.457       .  S
C209       C2593   1.455       .  S
O211        C214   1.260       .  A
O212        C214   1.268       .  A
C214       C2591   1.410       .  S
O215        C220   1.258       .  A
O216        C218   1.256       .  A
C217        O219   1.282       .  A
C217       C2604   1.426       .  S
C218       C2668   1.457       .  S
C220       C2588   1.408   1_455  S
Fe221       O237   2.029       .  S
Fe221       O227   2.047       .  S
Fe221       O234   2.050   1_556  S
Fe221       O226   2.042       .  S
Fe221       O232   1.957       .  S
Fe222       O225   2.012       .  S
Fe222       O229   2.044   1_556  S
Fe222       O233   2.027   1_556  S
Fe222       O238   2.034       .  S
Fe222       O232   1.986       .  S
Fe223       O241   2.099       .  S
Fe223       O228   2.128       .  S
Fe223       O235   2.120       .  S
Fe223       O224   2.122       .  S
Fe223       O232   1.968       .  S
O224        C231   1.283       .  A
O225        C239   1.260       .  A
O226        C231   1.266       .  A
O227        C230   1.260       .  A
O228        C240   1.278       .  A
O229        C242   1.258   1_554  A
C230        O235   1.274       .  A
C230       C2580   1.461       .  S
C231       C2583   1.449       .  S
O233        C236   1.259       .  A
O234        C236   1.267       .  A
C236       C2582   1.405       .  S
O237        C242   1.258       .  A
O238        C240   1.256       .  A
C239        O241   1.279       .  A
C239       C2585   1.422       .  S
C240       C2606   1.459       .  S
C242       C2578   1.407       .  S
Fe243       O259   2.031       .  S
Fe243       O249   2.042       .  S
Fe243       O256   2.046       .  S
Fe243       O248   2.040       .  S
Fe243       O254   1.960       .  S
Fe244       O247   2.007       .  S
Fe244       O251   2.045       .  S
Fe244       O255   2.024       .  S
Fe244       O260   2.035       .  S
Fe244       O254   1.987       .  S
Fe245       O263   2.101       .  S
Fe245       O250   2.137       .  S
Fe245       O257   2.128       .  S
Fe245       O246   2.124       .  S
Fe245       O254   1.971       .  S
O246        C253   1.282       .  A
O247        C261   1.259       .  A
O248        C253   1.265       .  A
O249        C252   1.259       .  A
O250        C262   1.280       .  A
O251        C264   1.258       .  A
C252        O257   1.277       .  A
C252       C2571   1.461       .  S
C253       C2576   1.451       .  S
O255        C258   1.258       .  A
O256        C258   1.266       .  A
C258       C2573   1.403       .  S
O259        C264   1.258       .  A
O260        C262   1.257       .  A
C261        O263   1.278       .  A
C261       C2586   1.421       .  S
C262       C2615   1.463       .  S
C264       C2569   1.410       .  S
Fe265       O281   2.036       .  S
Fe265       O271   2.057       .  S
Fe265       O278   2.049       .  S
Fe265       O270   2.048       .  S
Fe265       O276   1.944       .  S
Fe266       O269   2.034       .  S
Fe266       O273   2.050       .  S
Fe266       O277   2.035       .  S
Fe266       O282   2.047       .  S
Fe266       O276   1.972       .  S
Fe267       O285   2.149       .  S
Fe267       O272   2.109       .  S
Fe267       O279   2.136       .  S
Fe267       O268   2.125       .  S
Fe267       O276   1.944       .  S
O268        C275   1.278       .  A
O269        C283   1.261       .  A
O270        C275   1.263       .  A
O271        C274   1.266       .  A
O272        C284   1.276       .  A
O273        C286   1.263       .  A
C274        O279   1.286       .  A
C274       C2563   1.465       .  S
C275       C2566   1.455       .  S
O277        C280   1.259       .  A
O278        C280   1.265       .  A
C280       C2567   1.409       .  S
O281        C286   1.264       .  A
O282        C284   1.262       .  A
C283        O285   1.286       .  A
C283       C2557   1.459       .  S
C284       C2559   1.448       .  S
C286       C2561   1.409       .  S
Fe287       O303   2.043   1_556  S
Fe287       O293   2.049   1_565  S
Fe287       O300   2.041       .  S
Fe287       O292   2.051       .  S
Fe287       O298   1.958       .  S
Fe288       O291   2.035       .  S
Fe288       O295   2.042   1_556  S
Fe288       O299   2.037       .  S
Fe288       O304   2.039       .  S
Fe288       O298   1.981       .  S
Fe289       O307   2.144       .  S
Fe289       O294   2.113       .  S
Fe289       O301   2.138   1_565  S
Fe289       O290   2.128       .  S
Fe289       O298   1.959       .  S
O290        C297   1.277       .  A
O291        C305   1.259       .  A
O292        C297   1.263       .  A
O293        C296   1.265       .  A
O294        C306   1.279       .  A
O295        C308   1.261       .  A
C296        O301   1.286       .  A
C296       C2555   1.462       .  S
C297       C2663   1.460       .  S
O299        C302   1.258       .  A
O300        C302   1.263       .  A
C302       C2551   1.410       .  S
O303        C308   1.265       .  A
O304        C306   1.262       .  A
C305        O307   1.284       .  A
C305       C2549   1.460       .  S
C306       C2560   1.446       .  S
C308       C2553   1.412       .  S
Fe309       O325   2.038       .  S
Fe309       O315   2.056       .  S
Fe309       O322   2.044       .  S
Fe309       O314   2.053       .  S
Fe309       O320   1.945       .  S
Fe310       O313   2.035       .  S
Fe310       O317   2.054       .  S
Fe310       O321   2.030       .  S
Fe310       O326   2.052       .  S
Fe310       O320   1.976       .  S
Fe311       O329   2.148       .  S
Fe311       O316   2.103       .  S
Fe311       O323   2.131       .  S
Fe311       O312   2.123       .  S
Fe311       O320   1.948       .  S
O312        C319   1.276       .  A
O313        C327   1.260       .  A
O314        C319   1.263       .  A
O315        C318   1.267       .  A
O316        C328   1.276       .  A
O317        C330   1.264       .  A
C318        O323   1.286       .  A
C318       C2683   1.461       .  S
C319       C2546   1.458       .  S
O321        C324   1.257       .  A
O322        C324   1.264       .  A
C324       C2543   1.405       .  S
O325        C330   1.264       .  A
O326        C328   1.264       .  A
C327        O329   1.285       .  A
C327       C2539   1.460       .  S
C328       C2547   1.448       .  S
C330       C2541   1.413       .  S
Fe331       O347   2.037       .  S
Fe331       O337   2.035       .  S
Fe331       O344   2.033       .  S
Fe331       O336   2.027       .  S
Fe331       O342   1.970       .  S
Fe332       O335   2.039       .  S
Fe332       O339   2.046   1_565  S
Fe332       O343   2.043       .  S
Fe332       O348   2.023       .  S
Fe332       O342   1.985       .  S
Fe333       O351   2.138       .  S
Fe333       O338   2.122       .  S
Fe333       O345   2.146       .  S
Fe333       O334   2.126       .  S
Fe333       O342   1.975       .  S
O334        C341   1.277       .  A
O335        C349   1.260       .  A
O336        C341   1.258       .  A
O337        C340   1.261       .  A
O338        C350   1.281       .  A
O339        C352   1.262       .  A
C340        O345   1.286       .  A
C340       C2535   1.462       .  S
C341       C2537   1.450       .  S
O343        C346   1.258       .  A
O344        C346   1.259       .  A
C346       C2532   1.413       .  S
O347        C352   1.263   1_565  A
O348        C350   1.259       .  A
C349        O351   1.282       .  A
C349       C2530   1.462       .  S
C350       C2548   1.443       .  S
C352       C2533   1.414       .  S
Fe353       O369   2.038       .  S
Fe353       O359   2.057       .  S
Fe353       O366   2.046       .  S
Fe353       O358   2.048       .  S
Fe353       O364   1.954       .  S
Fe354       O357   2.033       .  S
Fe354       O361   2.043       .  S
Fe354       O365   2.034       .  S
Fe354       O370   2.038       .  S
Fe354       O364   1.979       .  S
Fe355       O373   2.143       .  S
Fe355       O360   2.096       .  S
Fe355       O367   2.126       .  S
Fe355       O356   2.125       .  S
Fe355       O364   1.957       .  S
O356        C363   1.277       .  A
O357        C371   1.259       .  A
O358        C363   1.263       .  A
O359        C362   1.266       .  A
O360        C372   1.275       .  A
O361        C374   1.262       .  A
C362        O367   1.283       .  A
C362       C2528   1.461       .  S
C363       C2525   1.456       .  S
O365        C368   1.257       .  A
O366        C368   1.263       .  A
C368       C2523   1.410       .  S
O369        C374   1.264       .  A
O370        C372   1.262       .  A
C371        O373   1.284       .  A
C371       C2519   1.459       .  S
C372       C2521   1.437       .  S
C374       C2568   1.408       .  S
Fe375       O391   2.035   1_565  S
Fe375       O381   2.053   1_655  S
Fe375       O388   2.047       .  S
Fe375       O380   2.044       .  S
Fe375       O386   1.949       .  S
Fe376       O379   2.040       .  S
Fe376       O383   2.045   1_565  S
Fe376       O387   2.045       .  S
Fe376       O392   2.039       .  S
Fe376       O386   1.973       .  S
Fe377       O395   2.142       .  S
Fe377       O382   2.096       .  S
Fe377       O389   2.122   1_655  S
Fe377       O378   2.125       .  S
Fe377       O386   1.953       .  S
O378        C385   1.278       .  A
O379        C393   1.262       .  A
O380        C385   1.262       .  A
O381        C384   1.266       .  A
O382        C394   1.274       .  A
O383        C396   1.262       .  A
C384        O389   1.282       .  A
C384       C2515   1.456       .  S
C385       C2676   1.454       .  S
O387        C390   1.260       .  A
O388        C390   1.264       .  A
C390       C2518   1.415       .  S
O391        C396   1.263       .  A
O392        C394   1.261       .  A
C393        O395   1.284       .  A
C393       C2512   1.459       .  S
C394       C2522   1.436       .  S
C396       C2513   1.408       .  S
Fe397       O413   2.040       .  S
Fe397       O403   2.059       .  S
Fe397       O410   2.047       .  S
Fe397       O402   2.048       .  S
Fe397       O408   1.956       .  S
Fe398       O401   2.033       .  S
Fe398       O405   2.044       .  S
Fe398       O409   2.037       .  S
Fe398       O414   2.037       .  S
Fe398       O408   1.982       .  S
Fe399       O417   2.127       .  S
Fe399       O404   2.095       .  S
Fe399       O411   2.123       .  S
Fe399       O400   2.113       .  S
Fe399       O408   1.964       .  S
O400        C407   1.274       .  A
O401        C415   1.258       .  A
O402        C407   1.262       .  A
O403        C406   1.267       .  A
O404        C416   1.276       .  A
O405        C418   1.262       .  A
C406        O411   1.282       .  A
C406       C2572   1.460       .  S
C407       C2505   1.452       .  S
O409        C412   1.257       .  A
O410        C412   1.263       .  A
C412       C2504   1.413       .  S
O413        C418   1.265       .  A
O414        C416   1.263       .  A
C415        O417   1.279       .  A
C415       C2501   1.453       .  S
C416       C2510   1.435       .  S
C418       C2508   1.410       .  S
Fe419       O435   2.038   1_655  S
Fe419       O425   2.052       .  S
Fe419       O432   2.042       .  S
Fe419       O424   2.042       .  S
Fe419       O430   1.955       .  S
Fe420       O423   2.038       .  S
Fe420       O427   2.045   1_655  S
Fe420       O431   2.041       .  S
Fe420       O436   2.037       .  S
Fe420       O430   1.978       .  S
Fe421       O439   2.125       .  S
Fe421       O426   2.096       .  S
Fe421       O433   2.122       .  S
Fe421       O422   2.113       .  S
Fe421       O430   1.962       .  S
O422        C429   1.273       .  A
O423        C437   1.260       .  A
O424        C429   1.261       .  A
O425        C428   1.266       .  A
O426        C438   1.276       .  A
O427        C440   1.262       .  A
C428        O433   1.282       .  A
C428       C2497   1.455       .  S
C429       C2499   1.449       .  S
O431        C434   1.259       .  A
O432        C434   1.263       .  A
C434       C2494   1.412       .  S
O435        C440   1.264       .  A
O436        C438   1.262       .  A
C437        O439   1.279       .  A
C437       C2491   1.453       .  S
C438       C2509   1.435       .  S
C440       C2496   1.411       .  S
Fe441       O457   2.033       .  S
Fe441       O447   2.056       .  S
Fe441       O454   2.044       .  S
Fe441       O446   2.043       .  S
Fe441       O452   1.950       .  S
Fe442       O445   2.036       .  S
Fe442       O449   2.049       .  S
Fe442       O453   2.037       .  S
Fe442       O458   2.043       .  S
Fe442       O452   1.976       .  S
Fe443       O461   2.146       .  S
Fe443       O448   2.107       .  S
Fe443       O455   2.136       .  S
Fe443       O444   2.125       .  S
Fe443       O452   1.951       .  S
O444        C451   1.278       .  A
O445        C459   1.260       .  A
O446        C451   1.262       .  A
O447        C450   1.265       .  A
O448        C460   1.277       .  A
O449        C462   1.264       .  A
C450        O455   1.285       .  A
C450       C2489   1.466       .  S
C451       C2488   1.453       .  S
O453        C456   1.258       .  A
O454        C456   1.263       .  A
C456       C2562   1.410       .  S
O457        C462   1.263       .  A
O458        C460   1.262       .  A
C459        O461   1.285       .  A
C459       C2483   1.461       .  S
C460       C2485   1.444       .  S
C462       C2524   1.409       .  S
Fe463       O479   2.036   1_655  S
Fe463       O469   2.050   1_556  S
Fe463       O476   2.043       .  S
Fe463       O468   2.042       .  S
Fe463       O474   1.953       .  S
Fe464       O467   2.036   1_655  S
Fe464       O471   2.045   1_655  S
Fe464       O475   2.036       .  S
Fe464       O480   2.042       .  S
Fe464       O474   1.975       .  S
Fe465       O483   2.141       .  S
Fe465       O470   2.106       .  S
Fe465       O477   2.130   1_556  S
Fe465       O466   2.123       .  S
Fe465       O474   1.954       .  S
O466        C473   1.277       .  A
O467        C481   1.260   1_455  A
O468        C473   1.262       .  A
O469        C472   1.265       .  A
O470        C482   1.278       .  A
O471        C484   1.262       .  A
C472        O477   1.284       .  A
C472       C2481   1.458       .  S
C473       C2584   1.452       .  S
O475        C478   1.258       .  A
O476        C478   1.263       .  A
C478       C2477   1.410       .  S
O479        C484   1.264       .  A
O480        C482   1.263       .  A
C481        O483   1.283       .  A
C481       C2475   1.459       .  S
C482       C2486   1.443       .  S
C484       C2479   1.409       .  S
Fe485       O501   2.036       .  S
Fe485       O491   2.051       .  S
Fe485       O498   2.043       .  S
Fe485       O490   2.045       .  S
Fe485       O496   1.954       .  S
Fe486       O489   2.032       .  S
Fe486       O493   2.040       .  S
Fe486       O497   2.038       .  S
Fe486       O502   2.033       .  S
Fe486       O496   1.980       .  S
Fe487       O505   2.143       .  S
Fe487       O492   2.105       .  S
Fe487       O499   2.132       .  S
Fe487       O488   2.124       .  S
Fe487       O496   1.958       .  S
O488        C495   1.277       .  A
O489        C503   1.259       .  A
O490        C495   1.263       .  A
O491        C494   1.264       .  A
O492        C504   1.277       .  A
O493        C506   1.261       .  A
C494        O499   1.284       .  A
C494       C2472   1.462       .  S
C495       C2575   1.453       .  S
O497        C500   1.257       .  A
O498        C500   1.262       .  A
C500       C2507   1.411       .  S
O501        C506   1.264       .  A
O502        C504   1.261       .  A
C503        O505   1.284       .  A
C503       C2520   1.459       .  S
C504       C2474   1.439       .  S
C506       C2470   1.407       .  S
Fe507       O523   2.040   1_545  S
Fe507       O513   2.053   1_655  S
Fe507       O520   2.042   1_545  S
Fe507       O512   2.048       .  S
Fe507       O518   1.951       .  S
Fe508       O511   2.037       .  S
Fe508       O515   2.049       .  S
Fe508       O519   2.037       .  S
Fe508       O524   2.044   1_565  S
Fe508       O518   1.976   1_565  S
Fe509       O527   2.141       .  S
Fe509       O514   2.099       .  S
Fe509       O521   2.128   1_655  S
Fe509       O510   2.119       .  S
Fe509       O518   1.954       .  S
O510        C517   1.275       .  A
O511        C525   1.260   1_565  A
O512        C517   1.262       .  A
O513        C516   1.266       .  A
O514        C526   1.276       .  A
O515        C528   1.263       .  A
C516        O521   1.284       .  A
C516       C2463   1.459       .  S
C517       C2467   1.453       .  S
O519        C522   1.258       .  A
O520        C522   1.263       .  A
C522       C2466   1.409       .  S
O523        C528   1.265       .  A
O524        C526   1.263       .  A
C525        O527   1.283       .  A
C525       C2511   1.459   1_545  S
C526       C2473   1.440       .  S
C528       C2462   1.412       .  S
Fe529       O545   2.038       .  S
Fe529       O535   2.061       .  S
Fe529       O542   2.052       .  S
Fe529       O534   2.046       .  S
Fe529       O540   1.945       .  S
Fe530       O533   2.034       .  S
Fe530       O537   2.050       .  S
Fe530       O541   2.040       .  S
Fe530       O546   2.044       .  S
Fe530       O540   1.971       .  S
Fe531       O549   2.147       .  S
Fe531       O536   2.100       .  S
Fe531       O543   2.130       .  S
Fe531       O532   2.125       .  S
Fe531       O540   1.949       .  S
O532        C539   1.278       .  A
O533        C547   1.260       .  A
O534        C539   1.263       .  A
O535        C538   1.267       .  A
O536        C548   1.275       .  A
O537        C550   1.264       .  A
C538        O543   1.284       .  A
C538       C2458   1.464       .  S
C539       C2681   1.453       .  S
O541        C544   1.259       .  A
O542        C544   1.265       .  A
C544       C2542   1.414       .  S
O545        C550   1.264       .  A
O546        C548   1.262       .  A
C547        O549   1.285       .  A
C547       C2558   1.459       .  S
C548       C2460   1.440       .  S
C550       C2456   1.411       .  S
Fe551       O567   2.036   1_554  S
Fe551       O557   2.057   1_565  S
Fe551       O564   2.049       .  S
Fe551       O556   2.045       .  S
Fe551       O562   1.945       .  S
Fe552       O555   2.037       .  S
Fe552       O559   2.048       .  S
Fe552       O563   2.041       .  S
Fe552       O568   2.044   1_556  S
Fe552       O562   1.970   1_556  S
Fe553       O571   2.148       .  S
Fe553       O558   2.099       .  S
Fe553       O565   2.126   1_565  S
Fe553       O554   2.127       .  S
Fe553       O562   1.947       .  S
O554        C561   1.278       .  A
O555        C569   1.261   1_556  A
O556        C561   1.263       .  A
O557        C560   1.266       .  A
O558        C570   1.275       .  A
O559        C572   1.263       .  A
C560        O565   1.283       .  A
C560       C2453   1.460       .  S
C561       C2452   1.454       .  S
O563        C566   1.260       .  A
O564        C566   1.265   1_554  A
C566       C2450   1.412       .  S
O567        C572   1.264       .  A
O568        C570   1.262       .  A
C569        O571   1.285       .  A
C569       C2550   1.461   1_554  S
C570       C2459   1.440       .  S
C572       C2465   1.409       .  S
Fe573       O589   2.038       .  S
Fe573       O579   2.058       .  S
Fe573       O586   2.050       .  S
Fe573       O578   2.048       .  S
Fe573       O584   1.949       .  S
Fe574       O577   2.036       .  S
Fe574       O581   2.043       .  S
Fe574       O585   2.040       .  S
Fe574       O590   2.039       .  S
Fe574       O584   1.974       .  S
Fe575       O593   2.148       .  S
Fe575       O580   2.100       .  S
Fe575       O587   2.129       .  S
Fe575       O576   2.129       .  S
Fe575       O584   1.951       .  S
O576        C583   1.279       .  A
O577        C591   1.261       .  A
O578        C583   1.263       .  A
O579        C582   1.267       .  A
O580        C592   1.275       .  A
O581        C594   1.262       .  A
C582        O587   1.284       .  A
C582       C2446   1.462       .  S
C583       C2654   1.457       .  S
O585        C588   1.259       .  A
O586        C588   1.265       .  A
C588       C2442   1.413       .  S
O589        C594   1.264       .  A
O590        C592   1.261       .  A
C591        O593   1.285       .  A
C591       C2484   1.460       .  S
C592       C2447   1.438       .  S
C594       C2443   1.408       .  S
Fe595       O611   2.038   1_455  S
Fe595       O601   2.057   1_556  S
Fe595       O608   2.049       .  S
Fe595       O600   2.046       .  S
Fe595       O606   1.944       .  S
Fe596       O599   2.038       .  S
Fe596       O603   2.052       .  S
Fe596       O607   2.041   1_655  S
Fe596       O612   2.046   1_655  S
Fe596       O606   1.971   1_655  S
Fe597       O615   2.146       .  S
Fe597       O602   2.095       .  S
Fe597       O609   2.122   1_556  S
Fe597       O598   2.123       .  S
Fe597       O606   1.949       .  S
O598        C605   1.277       .  A
O599        C613   1.261   1_655  A
O600        C605   1.263       .  A
O601        C604   1.267       .  A
O602        C614   1.274       .  A
O603        C616   1.264       .  A
C604        O609   1.283       .  A
C604       C2439   1.457       .  S
C605       C2437   1.453       .  S
O607        C610   1.259       .  A
O608        C610   1.264       .  A
C610       C2461   1.413   1_455  S
O611        C616   1.264       .  A
O612        C614   1.263       .  A
C613        O615   1.285       .  A
C613       C2476   1.459       .  S
C614       C2448   1.439       .  S
C616       C2449   1.411       .  S
Fe617       O633   2.030       .  S
Fe617       O623   2.027       .  S
Fe617       O630   2.040       .  S
Fe617       O622   2.037       .  S
Fe617       O628   1.960       .  S
Fe618       O621   2.005       .  S
Fe618       O625   2.049       .  S
Fe618       O629   2.029       .  S
Fe618       O634   2.038       .  S
Fe618       O628   1.987       .  S
Fe619       O637   2.112       .  S
Fe619       O624   2.134       .  S
Fe619       O631   2.112       .  S
Fe619       O620   2.133       .  S
Fe619       O628   1.973       .  S
O620        C627   1.285       .  A
O621        C635   1.257       .  A
O622        C627   1.264       .  A
O623        C626   1.256       .  A
O624        C636   1.280       .  A
O625        C638   1.259       .  A
C626        O631   1.273       .  A
C626       C2431   1.445       .  S
C627       C2429   1.453       .  S
O629        C632   1.259       .  A
O630        C632   1.264       .  A
C632       C2427   1.405       .  S
O633        C638   1.258       .  A
O634        C636   1.258       .  A
C635        O637   1.281       .  A
C635       C2436   1.427       .  S
C636       C2426   1.463       .  S
C638       C2433   1.411       .  S
Fe639       O655   2.027       .  S
Fe639       O645   2.044       .  S
Fe639       O652   2.054   1_554  S
Fe639       O644   2.039   1_545  S
Fe639       O650   1.953       .  S
Fe640       O643   2.011   1_556  S
Fe640       O647   2.046       .  S
Fe640       O651   2.024       .  S
Fe640       O656   2.038       .  S
Fe640       O650   1.983   1_556  S
Fe641       O659   2.112       .  S
Fe641       O646   2.128       .  S
Fe641       O653   2.112       .  S
Fe641       O642   2.131   1_545  S
Fe641       O650   1.963       .  S
O642        C649   1.286       .  A
O643        C657   1.261       .  A
O644        C649   1.267       .  A
O645        C648   1.259       .  A
O646        C658   1.277       .  A
O647        C660   1.258       .  A
C648        O653   1.271       .  A
C648       C2421   1.455       .  S
C649       C2419   1.451       .  S
O651        C654   1.259       .  A
O652        C654   1.268       .  A
C654       C2658   1.405       .  S
O655        C660   1.257   1_554  A
O656        C658   1.256   1_556  A
C657        O659   1.283       .  A
C657       C2435   1.429       .  S
C658       C2417   1.462   1_554  S
C660       C2423   1.405       .  S
Fe661       O677   2.035   1_554  S
Fe661       O667   2.060   1_554  S
Fe661       O674   2.053       .  S
Fe661       O666   2.047       .  S
Fe661       O672   1.938       .  S
Fe662       O665   2.034       .  S
Fe662       O669   2.054       .  S
Fe662       O673   2.032       .  S
Fe662       O678   2.053       .  S
Fe662       O672   1.965       .  S
Fe663       O681   2.154       .  S
Fe663       O668   2.109       .  S
Fe663       O675   2.136   1_554  S
Fe663       O664   2.125       .  S
Fe663       O672   1.939       .  S
O664        C671   1.277       .  A
O665        C679   1.261       .  A
O666        C671   1.263       .  A
O667        C670   1.268       .  A
O668        C680   1.277       .  A
O669        C682   1.264       .  A
C670        O675   1.287       .  A
C670       C2660   1.465       .  S
C671       C2420   1.454       .  S
O673        C676   1.258       .  A
O674        C676   1.266       .  A
C676       C2414   1.408       .  S
O677        C682   1.263   1_556  A
O678        C680   1.263       .  A
C679        O681   1.286       .  A
C679       C2411   1.460       .  S
C680       C2415   1.451       .  S
C682       C2552   1.409   1_554  S
Fe683       O699   2.034       .  S
Fe683       O689   2.046       .  S
Fe683       O696   2.034       .  S
Fe683       O688   2.039       .  S
Fe683       O694   1.965       .  S
Fe684       O687   2.040       .  S
Fe684       O691   2.042       .  S
Fe684       O695   2.039       .  S
Fe684       O700   2.032       .  S
Fe684       O694   1.987       .  S
Fe685       O703   2.142       .  S
Fe685       O690   2.123       .  S
Fe685       O697   2.149       .  S
Fe685       O686   2.126       .  S
Fe685       O694   1.965       .  S
O686        C693   1.277       .  A
O687        C701   1.260       .  A
O688        C693   1.261       .  A
O689        C692   1.263       .  A
O690        C702   1.281       .  A
O691        C704   1.262       .  A
C692        O697   1.287       .  A
C692       C2405   1.469       .  S
C693       C2407   1.453       .  S
O695        C698   1.257       .  A
O696        C698   1.260       .  A
C698       C2409   1.409       .  S
O699        C704   1.263       .  A
O700        C702   1.261       .  A
C701        O703   1.283       .  A
C701       C2401   1.464       .  S
C702       C2416   1.448       .  S
C704       C2403   1.408       .  S
Fe705       O721   2.031       .  S
Fe705       O711   2.049       .  S
Fe705       O718   2.054       .  S
Fe705       O710   2.043       .  S
Fe705       O716   1.955       .  S
Fe706       O709   2.007       .  S
Fe706       O713   2.040       .  S
Fe706       O717   2.019       .  S
Fe706       O722   2.030       .  S
Fe706       O716   1.986       .  S
Fe707       O725   2.105       .  S
Fe707       O712   2.140       .  S
Fe707       O719   2.128       .  S
Fe707       O708   2.125       .  S
Fe707       O716   1.964       .  S
O708        C715   1.284       .  A
O709        C723   1.259       .  A
O710        C715   1.267       .  A
O711        C714   1.260       .  A
O712        C724   1.280       .  A
O713        C726   1.257       .  A
C714        O719   1.276       .  A
C714       C2471   1.465       .  S
C715       C2400   1.450       .  S
O717        C720   1.258       .  A
O718        C720   1.268       .  A
C720       C2397   1.403       .  S
O721        C726   1.258       .  A
O722        C724   1.255       .  A
C723        O725   1.281       .  A
C723       C2395   1.424       .  S
C724       C2393   1.464       .  S
C726       C2574   1.406       .  S
Fe727       O743   2.033       .  S
Fe727       O733   2.049       .  S
Fe727       O740   2.057       .  S
Fe727       O732   2.042   1_556  S
Fe727       O738   1.955       .  S
Fe728       O731   2.003       .  S
Fe728       O735   2.048       .  S
Fe728       O739   2.019       .  S
Fe728       O744   2.033       .  S
Fe728       O738   1.983       .  S
Fe729       O747   2.110       .  S
Fe729       O734   2.142       .  S
Fe729       O741   2.130       .  S
Fe729       O730   2.136   1_556  S
Fe729       O738   1.964       .  S
O730        C737   1.286       .  A
O731        C745   1.259       .  A
O732        C737   1.266       .  A
O733        C736   1.260       .  A
O734        C746   1.281       .  A
O735        C748   1.258       .  A
C736        O741   1.276       .  A
C736       C2556   1.466       .  S
C737       C2391   1.456       .  S
O739        C742   1.259       .  A
O740        C742   1.269       .  A
C742       C2424   1.404       .  S
O743        C748   1.258       .  A
O744        C746   1.255       .  A
C745        O747   1.282       .  A
C745       C2396   1.422       .  S
C746       C2389   1.466       .  S
C748       C2661   1.412       .  S
Fe749       O765   2.035       .  S
Fe749       O755   2.052   1_455  S
Fe749       O762   2.041       .  S
Fe749       O754   2.040       .  S
Fe749       O760   1.956       .  S
Fe750       O753   2.042       .  S
Fe750       O757   2.045       .  S
Fe750       O761   2.042       .  S
Fe750       O766   2.037       .  S
Fe750       O760   1.978       .  S
Fe751       O769   2.142       .  S
Fe751       O756   2.098       .  S
Fe751       O763   2.126   1_455  S
Fe751       O752   2.122       .  S
Fe751       O760   1.959       .  S
O752        C759   1.276       .  A
O753        C767   1.261       .  A
O754        C759   1.261       .  A
O755        C758   1.265       .  A
O756        C768   1.276       .  A
O757        C770   1.263       .  A
C758        O763   1.283       .  A
C758       C2579   1.458       .  S
C759       C2383   1.451       .  S
O761        C764   1.258       .  A
O762        C764   1.261       .  A
C764       C2385   1.413       .  S
O765        C770   1.264       .  A
O766        C768   1.262       .  A
C767        O769   1.283       .  A
C767       C2381   1.464       .  S
C768       C2387   1.436       .  S
C770       C2478   1.408       .  S
Fe771       O787   2.038       .  S
Fe771       O777   2.056       .  S
Fe771       O784   2.048       .  S
Fe771       O776   2.044       .  S
Fe771       O782   1.954       .  S
Fe772       O775   2.034       .  S
Fe772       O779   2.043       .  S
Fe772       O783   2.037       .  S
Fe772       O788   2.036       .  S
Fe772       O782   1.978       .  S
Fe773       O791   2.145       .  S
Fe773       O778   2.099       .  S
Fe773       O785   2.127       .  S
Fe773       O774   2.125       .  S
Fe773       O782   1.957       .  S
O774        C781   1.277       .  A
O775        C789   1.259       .  A
O776        C781   1.262       .  A
O777        C780   1.266       .  A
O778        C790   1.276       .  A
O779        C792   1.262       .  A
C780        O785   1.283       .  A
C780       C2378   1.461       .  S
C781       C2380   1.454       .  S
O783        C786   1.258       .  A
O784        C786   1.264       .  A
C786       C2373   1.412       .  S
O787        C792   1.264       .  A
O788        C790   1.261       .  A
C789        O791   1.284       .  A
C789       C2371   1.461       .  S
C790       C2388   1.436       .  S
C792       C2375   1.409       .  S
Fe793       O809   2.027       .  S
Fe793       O799   2.046       .  S
Fe793       O806   2.052       .  S
Fe793       O798   2.038       .  S
Fe793       O804   1.958       .  S
Fe794       O797   2.000       .  S
Fe794       O801   2.051       .  S
Fe794       O805   2.017       .  S
Fe794       O810   2.040       .  S
Fe794       O804   1.987       .  S
Fe795       O813   2.106       .  S
Fe795       O800   2.148       .  S
Fe795       O807   2.135       .  S
Fe795       O796   2.131       .  S
Fe795       O804   1.966       .  S
O796        C803   1.284       .  A
O797        C811   1.258       .  A
O798        C803   1.265       .  A
O799        C802   1.260       .  A
O800        C812   1.283       .  A
O801        C814   1.259       .  A
C802        O807   1.278       .  A
C802       C2457   1.466       .  S
C803       C2369   1.453       .  S
O805        C808   1.257       .  A
O806        C808   1.268       .  A
C808       C2367   1.401       .  S
O809        C814   1.257       .  A
O810        C812   1.257       .  A
C811        O813   1.280       .  A
C811       C2366   1.420       .  S
C812       C2363   1.472       .  S
C814       C2680   1.410       .  S
Fe815       O831   2.032       .  S
Fe815       O821   2.050       .  S
Fe815       O828   2.057       .  S
Fe815       O820   2.043   1_655  S
Fe815       O826   1.954       .  S
Fe816       O819   2.008       .  S
Fe816       O823   2.041       .  S
Fe816       O827   2.025       .  S
Fe816       O832   2.026       .  S
Fe816       O826   1.984       .  S
Fe817       O835   2.100       .  S
Fe817       O822   2.127       .  S
Fe817       O829   2.119       .  S
Fe817       O818   2.122   1_655  S
Fe817       O826   1.968       .  S
O818        C825   1.283       .  A
O819        C833   1.260       .  A
O820        C825   1.267       .  A
O821        C824   1.260       .  A
O822        C834   1.277       .  A
O823        C836   1.257       .  A
C824        O829   1.273       .  A
C824       C2482   1.462       .  S
C825       C2362   1.448       .  S
O827        C830   1.259       .  A
O828        C830   1.268       .  A
C830       C2359   1.408       .  S
O831        C836   1.259       .  A
O832        C834   1.254       .  A
C833        O835   1.279       .  A
C833       C2365   1.421       .  S
C834       C2357   1.455       .  S
C836       C2581   1.408       .  S
Fe837       O853   2.026       .  S
Fe837       O843   2.042       .  S
Fe837       O850   2.049       .  S
Fe837       O842   2.037       .  S
Fe837       O848   1.960       .  S
Fe838       O841   2.014       .  S
Fe838       O845   2.038       .  S
Fe838       O849   2.030       .  S
Fe838       O854   2.030       .  S
Fe838       O848   1.988       .  S
Fe839       O857   2.104       .  S
Fe839       O844   2.152       .  S
Fe839       O851   2.137       .  S
Fe839       O840   2.126       .  S
Fe839       O848   1.969       .  S
O840        C847   1.284       .  A
O841        C855   1.260       .  A
O842        C847   1.266       .  A
O843        C846   1.258       .  A
O844        C856   1.283       .  A
O845        C858   1.257       .  A
C846        O851   1.277       .  A
C846       C2355   1.466       .  S
C847       C2506   1.448       .  S
O849        C852   1.259       .  A
O850        C852   1.266       .  A
C852       C2570   1.408       .  S
O853        C858   1.258       .  A
O854        C856   1.255       .  A
C855        O857   1.280       .  A
C855       C2353   1.428       .  S
C856       C2351   1.469       .  S
C858       C2398   1.404       .  S
Fe859       O875   2.032       .  S
Fe859       O865   2.042       .  S
Fe859       O872   2.056       .  S
Fe859       O864   2.043       .  S
Fe859       O870   1.955       .  S
Fe860       O863   2.007       .  S
Fe860       O867   2.047       .  S
Fe860       O871   2.023       .  S
Fe860       O876   2.041       .  S
Fe860       O870   1.981       .  S
Fe861       O879   2.115       .  S
Fe861       O866   2.136       .  S
Fe861       O873   2.119       .  S
Fe861       O862   2.137       .  S
Fe861       O870   1.962       .  S
O862        C869   1.288       .  A
O863        C877   1.260       .  A
O864        C869   1.268       .  A
O865        C868   1.258       .  A
O866        C878   1.279       .  A
O867        C880   1.259       .  A
C868        O873   1.273       .  A
C868       C2346   1.457       .  S
C869       C2349   1.455       .  S
O871        C874   1.259       .  A
O872        C874   1.268       .  A
C874       C2347   1.406       .  S
O875        C880   1.258       .  A
O876        C878   1.257       .  A
C877        O879   1.284       .  A
C877       C2354   1.426       .  S
C878       C2341   1.467       .  S
C880       C2343   1.407       .  S
Fe881       O897   2.025       .  S
Fe881       O887   2.047       .  S
Fe881       O894   2.056       .  S
Fe881       O886   2.038       .  S
Fe881       O892   1.953       .  S
Fe882       O885   2.016       .  S
Fe882       O889   2.042       .  S
Fe882       O893   2.026       .  S
Fe882       O898   2.036       .  S
Fe882       O892   1.984       .  S
Fe883       O901   2.120       .  S
Fe883       O888   2.145       .  S
Fe883       O895   2.127       .  S
Fe883       O884   2.139       .  S
Fe883       O892   1.958       .  S
O884        C891   1.288       .  A
O885        C899   1.261       .  A
O886        C891   1.266       .  A
O887        C890   1.259       .  A
O888        C900   1.281       .  A
O889        C902   1.257       .  A
C890        O895   1.275       .  A
C890       C2339   1.464       .  S
C891       C2545   1.454       .  S
O893        C896   1.259       .  A
O894        C896   1.268       .  A
C896       C2686   1.406       .  S
O897        C902   1.257       .  A
O898        C900   1.256       .  A
C899        O901   1.285       .  A
C899       C2337   1.434       .  S
C900       C2335   1.469       .  S
C902       C2368   1.403       .  S
Fe903       O919   2.031       .  S
Fe903       O909   2.041       .  S
Fe903       O916   2.061       .  S
Fe903       O908   2.036       .  S
Fe903       O914   1.951       .  S
Fe904       O907   2.007       .  S
Fe904       O911   2.053       .  S
Fe904       O915   2.023       .  S
Fe904       O920   2.034       .  S
Fe904       O914   1.977       .  S
Fe905       O923   2.129       .  S
Fe905       O910   2.148       .  S
Fe905       O917   2.126       .  S
Fe905       O906   2.154       .  S
Fe905       O914   1.958       .  S
O906        C913   1.291       .  A
O907        C921   1.261       .  A
O908        C913   1.265       .  A
O909        C912   1.259       .  A
O910        C922   1.282       .  A
O911        C924   1.258       .  A
C912        O917   1.276       .  A
C912       C2332   1.459       .  S
C913       C2333   1.461       .  S
O915        C918   1.260       .  A
O916        C918   1.271       .  A
C918       C2344   1.406       .  S
O919        C924   1.256       .  A
O920        C922   1.255       .  A
C921        O923   1.288       .  A
C921       C2338   1.431       .  S
C922       C2327   1.470       .  S
C924       C2329   1.413       .  S
Fe925       O941   2.030       .  S
Fe925       O931   2.046       .  S
Fe925       O938   2.051       .  S
Fe925       O930   2.038       .  S
Fe925       O936   1.961       .  S
Fe926       O929   2.017       .  S
Fe926       O933   2.046       .  S
Fe926       O937   2.030       .  S
Fe926       O942   2.039       .  S
Fe926       O936   1.985       .  S
Fe927       O945   2.109       .  S
Fe927       O932   2.133       .  S
Fe927       O939   2.124       .  S
Fe927       O928   2.131       .  S
Fe927       O936   1.969       .  S
O928        C935   1.284       .  A
O929        C943   1.261       .  A
O930        C935   1.265       .  A
O931        C934   1.260       .  A
O932        C944   1.279       .  A
O933        C946   1.259       .  A
C934        O939   1.275       .  A
C934       C2319   1.461       .  S
C935       C2323   1.452       .  S
O937        C940   1.260       .  A
O938        C940   1.267       .  A
C940       C2648   1.408       .  S
O941        C946   1.258       .  A
O942        C944   1.258       .  A
C943        O945   1.281       .  A
C943       C2325   1.430       .  S
C944       C2317   1.463       .  S
C946       C2321   1.409       .  S
Fe947       O963   2.029       .  S
Fe947       O953   2.050       .  S
Fe947       O960   2.059       .  S
Fe947       O952   2.033       .  S
Fe947       O958   1.949       .  S
Fe948       O951   2.019       .  S
Fe948       O955   2.049       .  S
Fe948       O959   2.034       .  S
Fe948       O964   2.033       .  S
Fe948       O958   1.976       .  S
Fe949       O967   2.112       .  S
Fe949       O954   2.095       .  S
Fe949       O961   2.091       .  S
Fe949       O950   2.131       .  S
Fe949       O958   1.964       .  S
O950        C957   1.285       .  A
O951        C965   1.262       .  A
O952        C957   1.266       .  A
O953        C956   1.261       .  A
O954        C966   1.270       .  A
O955        C968   1.259       .  A
C956        O961   1.267       .  A
C956       C2315   1.447       .  S
C957       C2313   1.447       .  S
O959        C962   1.261       .  A
O960        C962   1.268       .  A
C962       C2330   1.412       .  S
O963        C968   1.258       .  A
O964        C966   1.257       .  A
C965        O967   1.283       .  A
C965       C2326   1.430       .  S
C966       C2311   1.441       .  S
C968       C2348   1.407       .  S
Fe969       O985   2.038       .  S
Fe969       O975   2.052       .  S
Fe969       O982   2.040       .  S
Fe969       O974   2.043       .  S
Fe969       O980   1.960       .  S
Fe970       O973   2.038       .  S
Fe970       O977   2.043       .  S
Fe970       O981   2.036       .  S
Fe970       O986   2.036       .  S
Fe970       O980   1.983       .  S
Fe971       O989   2.133       .  S
Fe971       O976   2.098       .  S
Fe971       O983   2.125       .  S
Fe971       O972   2.118       .  S
Fe971       O980   1.964       .  S
O972        C979   1.275       .  A
O973        C987   1.259       .  A
O974        C979   1.261       .  A
O975        C978   1.265       .  A
O976        C988   1.276       .  A
O977        C990   1.262       .  A
C978        O983   1.283       .  A
C978       C2598   1.458       .  S
C979       C2305   1.452       .  S
O981        C984   1.256       .  A
O982        C984   1.261       .  A
C984       C2404   1.410       .  S
O985        C990   1.265       .  A
O986        C988   1.263       .  A
C987        O989   1.281       .  A
C987       C2304   1.459       .  S
C988       C2309   1.436       .  S
C990       C2307   1.409       .  S
Fe991      O1007   2.040       .  S
Fe991       O997   2.057       .  S
Fe991      O1004   2.050       .  S
Fe991       O996   2.049       .  S
Fe991      O1002   1.947       .  S
Fe992       O995   2.037       .  S
Fe992       O999   2.041       .  S
Fe992      O1003   2.046       .  S
Fe992      O1008   2.037       .  S
Fe992      O1002   1.973       .  S
Fe993      O1011   2.128       .  S
Fe993       O998   2.096       .  S
Fe993      O1005   2.121       .  S
Fe993       O994   2.114       .  S
Fe993      O1002   1.956       .  S
O994       C1001   1.275       .  A
O995       C1009   1.262       .  A
O996       C1001   1.264       .  A
O997       C1000   1.266       .  A
O998       C1010   1.274       .  A
O999       C1012   1.260       .  A
C1000      O1005   1.281       .  A
C1000      C2331   1.458       .  S
C1001      C2314   1.451       .  S
O1003      C1006   1.262       .  A
O1004      C1006   1.265       .  A
C1006      C2301   1.415       .  S
O1007      C1012   1.264       .  A
O1008      C1010   1.260       .  A
C1009      O1011   1.281       .  A
C1009      C2297   1.449       .  S
C1010      C2310   1.436       .  S
C1012      C2300   1.409       .  S
Fe1013     O1029   2.036       .  S
Fe1013     O1019   2.053       .  S
Fe1013     O1026   2.042       .  S
Fe1013     O1018   2.046       .  S
Fe1013     O1024   1.954       .  S
Fe1014     O1017   2.035       .  S
Fe1014     O1021   2.043       .  S
Fe1014     O1025   2.039       .  S
Fe1014     O1030   2.035       .  S
Fe1014     O1024   1.977       .  S
Fe1015     O1033   2.141       .  S
Fe1015     O1020   2.094       .  S
Fe1015     O1027   2.122       .  S
Fe1015     O1016   2.134       .  S
Fe1015     O1024   1.957       .  S
O1016      C1023   1.280       .  A
O1017      C1031   1.260       .  A
O1018      C1023   1.262       .  A
O1019      C1022   1.265       .  A
O1020      C1032   1.275       .  A
O1021      C1034   1.261       .  A
C1022      O1027   1.281       .  A
C1022      C2639   1.458       .  S
C1023      C2293   1.459       .  S
O1025      C1028   1.259       .  A
O1026      C1028   1.263       .  A
C1028      C2376   1.410       .  S
O1029      C1034   1.263       .  A
O1030      C1032   1.261       .  A
C1031      O1033   1.283       .  A
C1031      C2289   1.458       .  S
C1032      C2295   1.432       .  S
C1034      C2291   1.408       .  S
Fe1035     O1051   2.039       .  S
Fe1035     O1041   2.064       .  S
Fe1035     O1048   2.062       .  S
Fe1035     O1040   2.050       .  S
Fe1035     O1046   1.926       .  S
Fe1036     O1039   2.032       .  S
Fe1036     O1043   2.061       .  S
Fe1036     O1047   2.035       .  S
Fe1036     O1052   2.055       .  S
Fe1036     O1046   1.956       .  S
Fe1037     O1055   2.154       .  S
Fe1037     O1042   2.079       .  S
Fe1037     O1049   2.099       .  S
Fe1037     O1038   2.132       .  S
Fe1037     O1046   1.940       .  S
O1038      C1045   1.279       .  A
O1039      C1053   1.260       .  A
O1040      C1045   1.263       .  A
O1041      C1044   1.271       .  A
O1042      C1054   1.270       .  A
O1043      C1056   1.265       .  A
C1044      O1049   1.280       .  A
C1044      C2316   1.445       .  S
C1045      C2350   1.458       .  S
O1047      C1050   1.260       .  A
O1048      C1050   1.270       .  A
C1050      C2287   1.414       .  S
O1051      C1056   1.263       .  A
O1052      C1054   1.264       .  A
C1053      O1055   1.287       .  A
C1053      C2285   1.455       .  S
C1054      C2296   1.435       .  S
C1056      C2302   1.416       .  S
Fe1057     O1073   2.039       .  S
Fe1057     O1063   2.050       .  S
Fe1057     O1070   2.037       .  S
Fe1057     O1062   2.048       .  S
Fe1057     O1068   1.960       .  S
Fe1058     O1061   2.036       .  S
Fe1058     O1065   2.048       .  S
Fe1058     O1069   2.043       .  S
Fe1058     O1074   2.029       .  S
Fe1058     O1068   1.985       .  S
Fe1059     O1077   2.121       .  S
Fe1059     O1064   2.088       .  S
Fe1059     O1071   2.119       .  S
Fe1059     O1060   2.121       .  S
Fe1059     O1068   1.970       .  S
O1060      C1067   1.276       .  A
O1061      C1075   1.260       .  A
O1062      C1067   1.262       .  A
O1063      C1066   1.265       .  A
O1064      C1076   1.274       .  A
O1065      C1078   1.263       .  A
C1066      O1071   1.280       .  A
C1066      C2619   1.455       .  S
C1067      C2279   1.456       .  S
O1069      C1072   1.258       .  A
O1070      C1072   1.261       .  A
C1072      C2277   1.412       .  S
O1073      C1078   1.264       .  A
O1074      C1076   1.261       .  A
C1075      O1077   1.278       .  A
C1075      C2275   1.450       .  S
C1076      C2283   1.426       .  S
C1078      C2282   1.413       .  S
Fe1079     O1095   2.042       .  S
Fe1079     O1085   2.050       .  S
Fe1079     O1092   2.035       .  S
Fe1079     O1084   2.059       .  S
Fe1079     O1090   1.959       .  S
Fe1080     O1083   2.039       .  S
Fe1080     O1087   2.048       .  S
Fe1080     O1091   2.038       .  S
Fe1080     O1096   2.038       .  S
Fe1080     O1090   1.987       .  S
Fe1081     O1099   2.128       .  S
Fe1081     O1086   2.080       .  S
Fe1081     O1093   2.120       .  S
Fe1081     O1082   2.124       .  S
Fe1081     O1090   1.966       .  S
O1082      C1089   1.276       .  A
O1083      C1097   1.260       .  A
O1084      C1089   1.264       .  A
O1085      C1088   1.266       .  A
O1086      C1098   1.273       .  A
O1087      C1100   1.263       .  A
C1088      O1093   1.281       .  A
C1088      C2345   1.455       .  S
C1089      C2334   1.466       .  S
O1091      C1094   1.257       .  A
O1092      C1094   1.261       .  A
C1094      C2299   1.410       .  S
O1095      C1100   1.265       .  A
O1096      C1098   1.264       .  A
C1097      O1099   1.279       .  A
C1097      C2273   1.455       .  S
C1098      C2284   1.428       .  S
C1100      C2288   1.412       .  S
Fe1101     O1117   2.041   1_545  S
Fe1101     O1107   2.050   1_545  S
Fe1101     O1114   2.045       .  S
Fe1101     O1106   2.048       .  S
Fe1101     O1112   1.955       .  S
Fe1102     O1105   2.043       .  S
Fe1102     O1109   2.050       .  S
Fe1102     O1113   2.043       .  S
Fe1102     O1118   2.044       .  S
Fe1102     O1112   1.977       .  S
Fe1103     O1121   2.152       .  S
Fe1103     O1108   2.094       .  S
Fe1103     O1115   2.124   1_545  S
Fe1103     O1104   2.136       .  S
Fe1103     O1112   1.958       .  S
O1104      C1111   1.280       .  A
O1105      C1119   1.261       .  A
O1106      C1111   1.262       .  A
O1107      C1110   1.266       .  A
O1108      C1120   1.275       .  A
O1109      C1122   1.263       .  A
C1110      O1115   1.283       .  A
C1110      C2672   1.455       .  S
C1111      C2269   1.463       .  S
O1113      C1116   1.260       .  A
O1114      C1116   1.263       .  A
C1116      C2268   1.415       .  S
O1117      C1122   1.265   1_565  A
O1118      C1120   1.263       .  A
C1119      O1121   1.285       .  A
C1119      C2265   1.466       .  S
C1120      C2271   1.438       .  S
C1122      C2517   1.414   1_545  S
Fe1123     O1139   2.042       .  S
Fe1123     O1129   2.055       .  S
Fe1123     O1136   2.042       .  S
Fe1123     O1128   2.053       .  S
Fe1123     O1134   1.952       .  S
Fe1124     O1127   2.033       .  S
Fe1124     O1131   2.044       .  S
Fe1124     O1135   2.037       .  S
Fe1124     O1140   2.038       .  S
Fe1124     O1134   1.979       .  S
Fe1125     O1143   2.133       .  S
Fe1125     O1130   2.101       .  S
Fe1125     O1137   2.132       .  S
Fe1125     O1126   2.115       .  S
Fe1125     O1134   1.957       .  S
O1126      C1133   1.275       .  A
O1127      C1141   1.260       .  A
O1128      C1133   1.264       .  A
O1129      C1132   1.266       .  A
O1130      C1142   1.276       .  A
O1131      C1144   1.261       .  A
C1132      O1137   1.285       .  A
C1132      C2260   1.463       .  S
C1133      C2261   1.454       .  S
O1135      C1138   1.259       .  A
O1136      C1138   1.263       .  A
C1138      C2263   1.408       .  S
O1139      C1144   1.265       .  A
O1140      C1142   1.261       .  A
C1141      O1143   1.282       .  A
C1141      C2257   1.452       .  S
C1142      C2272   1.438       .  S
C1144      C2278   1.412       .  S
Fe1145     O1161   2.029       .  S
Fe1145     O1151   2.042       .  S
Fe1145     O1158   2.051       .  S
Fe1145     O1150   2.041       .  S
Fe1145     O1156   1.961       .  S
Fe1146     O1149   2.015       .  S
Fe1146     O1153   2.043       .  S
Fe1146     O1157   2.028       .  S
Fe1146     O1162   2.037       .  S
Fe1146     O1156   1.987       .  S
Fe1147     O1165   2.114       .  S
Fe1147     O1152   2.146       .  S
Fe1147     O1159   2.132       .  S
Fe1147     O1148   2.139       .  S
Fe1147     O1156   1.967       .  S
O1148      C1155   1.287       .  A
O1149      C1163   1.260       .  A
O1150      C1155   1.266       .  A
O1151      C1154   1.259       .  A
O1152      C1164   1.282       .  A
O1153      C1166   1.258       .  A
C1154      O1159   1.277       .  A
C1154      C2445   1.464       .  S
C1155      C2255   1.457       .  S
O1157      C1160   1.260       .  A
O1158      C1160   1.267       .  A
C1160      C2322   1.407       .  S
O1161      C1166   1.258       .  A
O1162      C1164   1.257       .  A
C1163      O1165   1.282       .  A
C1163      C2253   1.431       .  S
C1164      C2252   1.470       .  S
C1166      C2652   1.407       .  S
Fe1167     O1183   2.030       .  S
Fe1167     O1173   2.049       .  S
Fe1167     O1180   2.057       .  S
Fe1167     O1172   2.037   1_565  S
Fe1167     O1178   1.952       .  S
Fe1168     O1171   2.010       .  S
Fe1168     O1175   2.039       .  S
Fe1168     O1179   2.021       .  S
Fe1168     O1184   2.023       .  S
Fe1168     O1178   1.981       .  S
Fe1169     O1187   2.116       .  S
Fe1169     O1174   2.124       .  S
Fe1169     O1181   2.116       .  S
Fe1169     O1170   2.128   1_565  S
Fe1169     O1178   1.961       .  S
O1170      C1177   1.284       .  A
O1171      C1185   1.260       .  A
O1172      C1177   1.265       .  A
O1173      C1176   1.261       .  A
O1174      C1186   1.276       .  A
O1175      C1188   1.257       .  A
C1176      O1181   1.274       .  A
C1176      C2516   1.458       .  S
C1177      C2250   1.449       .  S
O1179      C1182   1.258       .  A
O1180      C1182   1.268       .  A
C1182      C2248   1.404       .  S
O1183      C1188   1.258       .  A
O1184      C1186   1.254       .  A
C1185      O1187   1.283       .  A
C1185      C2254   1.430       .  S
C1186      C2245   1.451       .  S
C1188      C2674   1.404       .  S
Fe1189     O1205   2.036       .  S
Fe1189     O1195   2.064       .  S
Fe1189     O1202   2.054       .  S
Fe1189     O1194   2.047       .  S
Fe1189     O1200   1.946       .  S
Fe1190     O1193   2.036       .  S
Fe1190     O1197   2.045       .  S
Fe1190     O1201   2.042       .  S
Fe1190     O1206   2.037       .  S
Fe1190     O1200   1.971       .  S
Fe1191     O1209   2.145       .  S
Fe1191     O1196   2.088       .  S
Fe1191     O1203   2.120       .  S
Fe1191     O1192   2.127       .  S
Fe1191     O1200   1.950       .  S
O1192      C1199   1.278       .  A
O1193      C1207   1.261       .  A
O1194      C1199   1.263       .  A
O1195      C1198   1.268       .  A
O1196      C1208   1.273       .  A
O1197      C1210   1.262       .  A
C1198      O1203   1.282       .  A
C1198      C2241   1.460       .  S
C1199      C2623   1.455       .  S
O1201      C1204   1.259       .  A
O1202      C1204   1.265       .  A
C1204      C2281   1.415       .  S
O1205      C1210   1.264       .  A
O1206      C1208   1.261       .  A
C1207      O1209   1.285       .  A
C1207      C2540   1.459       .  S
C1208      C2243   1.430       .  S
C1210      C2264   1.408       .  S
Fe1211     O1227   2.034   1_545  S
Fe1211     O1217   2.054       .  S
Fe1211     O1224   2.045   1_545  S
Fe1211     O1216   2.046       .  S
Fe1211     O1222   1.946       .  S
Fe1212     O1215   2.042       .  S
Fe1212     O1219   2.050       .  S
Fe1212     O1223   2.044       .  S
Fe1212     O1228   2.041   1_565  S
Fe1212     O1222   1.972   1_565  S
Fe1213     O1231   2.148       .  S
Fe1213     O1218   2.083       .  S
Fe1213     O1225   2.113       .  S
Fe1213     O1214   2.134       .  S
Fe1213     O1222   1.949       .  S
O1214      C1221   1.280       .  A
O1215      C1229   1.262       .  A
O1216      C1221   1.263       .  A
O1217      C1220   1.265       .  A
O1218      C1230   1.272       .  A
O1219      C1232   1.264       .  A
C1220      O1225   1.280       .  A
C1220      C2422   1.452       .  S
C1221      C2392   1.459       .  S
O1223      C1226   1.259       .  A
O1224      C1226   1.263       .  A
C1226      C2554   1.413       .  S
O1227      C1232   1.264       .  A
O1228      C1230   1.262       .  A
C1229      O1231   1.285   1_565  A
C1229      C2529   1.464       .  S
C1230      C2244   1.431       .  S
C1232      C2413   1.407       .  S
Fe1233     O1249   2.037       .  S
Fe1233     O1239   2.056       .  S
Fe1233     O1246   2.044       .  S
Fe1233     O1238   2.045       .  S
Fe1233     O1244   1.956       .  S
Fe1234     O1237   2.032       .  S
Fe1234     O1241   2.048       .  S
Fe1234     O1245   2.033       .  S
Fe1234     O1250   2.041       .  S
Fe1234     O1244   1.981       .  S
Fe1235     O1253   2.139       .  S
Fe1235     O1240   2.103       .  S
Fe1235     O1247   2.132       .  S
Fe1235     O1236   2.124       .  S
Fe1235     O1244   1.960       .  S
O1236      C1243   1.277       .  A
O1237      C1251   1.259       .  A
O1238      C1243   1.262       .  A
O1239      C1242   1.266       .  A
O1240      C1252   1.277       .  A
O1241      C1254   1.263       .  A
C1242      O1247   1.284       .  A
C1242      C2650   1.463       .  S
C1243      C2324   1.455       .  S
O1245      C1248   1.257       .  A
O1246      C1248   1.263       .  A
C1248      C2240   1.410       .  S
O1249      C1254   1.264       .  A
O1250      C1252   1.263       .  A
C1251      O1253   1.282       .  A
C1251      C2235   1.457       .  S
C1252      C2238   1.442       .  S
C1254      C2441   1.411       .  S
Fe1255     O1271   2.035   1_556  S
Fe1255     O1261   2.053       .  S
Fe1255     O1268   2.041       .  S
Fe1255     O1260   2.046       .  S
Fe1255     O1266   1.956       .  S
Fe1256     O1259   2.037       .  S
Fe1256     O1263   2.043   1_556  S
Fe1256     O1267   2.037       .  S
Fe1256     O1272   2.038       .  S
Fe1256     O1266   1.981       .  S
Fe1257     O1275   2.140       .  S
Fe1257     O1262   2.106       .  S
Fe1257     O1269   2.133       .  S
Fe1257     O1258   2.125       .  S
Fe1257     O1266   1.957       .  S
O1258      C1265   1.277       .  A
O1259      C1273   1.260       .  A
O1260      C1265   1.262       .  A
O1261      C1264   1.265       .  A
O1262      C1274   1.278       .  A
O1263      C1276   1.262       .  A
C1264      O1269   1.284       .  A
C1264      C2233   1.462       .  S
C1265      C2230   1.456       .  S
O1267      C1270   1.258       .  A
O1268      C1270   1.263       .  A
C1270      C2227   1.409       .  S
O1271      C1276   1.263       .  A
O1272      C1274   1.262       .  A
C1273      O1275   1.283       .  A
C1273      C2226   1.459       .  S
C1274      C2237   1.441       .  S
C1276      C2231   1.408       .  S
Fe1277     O1293   2.035       .  S
Fe1277     O1283   2.050       .  S
Fe1277     O1290   2.035       .  S
Fe1277     O1282   2.043       .  S
Fe1277     O1288   1.965       .  S
Fe1278     O1281   2.034       .  S
Fe1278     O1285   2.048       .  S
Fe1278     O1289   2.034       .  S
Fe1278     O1294   2.035       .  S
Fe1278     O1288   1.990       .  S
Fe1279     O1297   2.124       .  S
Fe1279     O1284   2.111       .  S
Fe1279     O1291   2.136       .  S
Fe1279     O1280   2.117       .  S
Fe1279     O1288   1.970       .  S
O1280      C1287   1.275       .  A
O1281      C1295   1.259       .  A
O1282      C1287   1.261       .  A
O1283      C1286   1.264       .  A
O1284      C1296   1.279       .  A
O1285      C1298   1.263       .  A
C1286      O1291   1.284       .  A
C1286      C2356   1.464       .  S
C1287      C2399   1.452       .  S
O1289      C1292   1.256       .  A
O1290      C1292   1.261       .  A
C1292      C2469   1.407       .  S
O1293      C1298   1.263       .  A
O1294      C1296   1.261       .  A
C1295      O1297   1.279       .  A
C1295      C2258   1.453       .  S
C1296      C2223   1.442       .  S
C1298      C2503   1.411       .  S
Fe1299     O1315   2.037   1_545  S
Fe1299     O1305   2.046   1_545  S
Fe1299     O1312   2.041       .  S
Fe1299     O1304   2.033       .  S
Fe1299     O1310   1.951       .  S
Fe1300     O1303   2.048       .  S
Fe1300     O1307   2.061       .  S
Fe1300     O1311   2.039       .  S
Fe1300     O1316   2.051       .  S
Fe1300     O1310   1.959       .  S
Fe1301     O1319   2.142       .  S
Fe1301     O1306   2.099       .  S
Fe1301     O1313   2.121   1_545  S
Fe1301     O1302   2.134       .  S
Fe1301     O1310   1.946       .  S
O1302      C1309   1.281       .  A
O1303      C1317   1.262       .  A
O1304      C1309   1.263       .  A
O1305      C1308   1.261       .  A
O1306      C1318   1.278       .  A
O1307      C1320   1.269   1_545  A
C1308      O1313   1.280       .  A
C1308      C2221   1.451       .  S
C1309      C2634   1.448       .  S
O1311      C1314   1.257       .  A
O1312      C1314   1.260       .  A
C1314      C2219   1.411       .  S
O1315      C1320   1.266       .  A
O1316      C1318   1.266       .  A
C1317      O1319   1.284       .  A
C1317      C2266   1.466       .  S
C1318      C2224   1.443       .  S
C1320      C2531   1.411       .  S
Fe1321     O1337   2.037       .  S
Fe1321     O1327   2.056       .  S
Fe1321     O1334   2.049       .  S
Fe1321     O1326   2.045       .  S
Fe1321     O1332   1.944       .  S
Fe1322     O1325   2.035       .  S
Fe1322     O1329   2.049       .  S
Fe1322     O1333   2.037       .  S
Fe1322     O1338   2.047       .  S
Fe1322     O1332   1.968       .  S
Fe1323     O1341   2.145       .  S
Fe1323     O1328   2.109       .  S
Fe1323     O1335   2.132       .  S
Fe1323     O1324   2.122       .  S
Fe1323     O1332   1.945       .  S
O1324      C1331   1.277       .  A
O1325      C1339   1.261       .  A
O1326      C1331   1.263       .  A
O1327      C1330   1.266       .  A
O1328      C1340   1.277       .  A
O1329      C1342   1.263       .  A
C1330      O1335   1.285       .  A
C1330      C2215   1.462       .  S
C1331      C2601   1.452       .  S
O1333      C1336   1.259       .  A
O1334      C1336   1.265       .  A
C1336      C2308   1.410       .  S
O1337      C1342   1.264       .  A
O1338      C1340   1.262       .  A
C1339      O1341   1.285       .  A
C1339      C2236   1.457       .  S
C1340      C2217   1.447       .  S
C1342      C2410   1.410       .  S
Fe1343     O1359   2.037   1_554  S
Fe1343     O1349   2.050       .  S
Fe1343     O1356   2.039       .  S
Fe1343     O1348   2.041       .  S
Fe1343     O1354   1.958       .  S
Fe1344     O1347   2.038       .  S
Fe1344     O1351   2.048       .  S
Fe1344     O1355   2.037       .  S
Fe1344     O1360   2.041   1_556  S
Fe1344     O1354   1.980   1_556  S
Fe1345     O1363   2.138       .  S
Fe1345     O1350   2.113       .  S
Fe1345     O1357   2.140       .  S
Fe1345     O1346   2.119       .  S
Fe1345     O1354   1.959       .  S
O1346      C1353   1.275       .  A
O1347      C1361   1.260   1_556  A
O1348      C1353   1.261       .  A
O1349      C1352   1.264       .  A
O1350      C1362   1.279       .  A
O1351      C1364   1.263       .  A
C1352      O1357   1.286       .  A
C1352      C2214   1.465       .  S
C1353      C2361   1.451       .  S
O1355      C1358   1.258       .  A
O1356      C1358   1.262   1_554  A
C1358      C2480   1.409       .  S
O1359      C1364   1.264       .  A
O1360      C1362   1.262       .  A
C1361      O1363   1.282       .  A
C1361      C2225   1.459   1_554  S
C1362      C2218   1.446       .  S
C1364      C2386   1.411       .  S
Fe1365     O1381   2.036       .  S
Fe1365     O1371   2.051       .  S
Fe1365     O1378   2.039       .  S
Fe1365     O1370   2.047       .  S
Fe1365     O1376   1.957       .  S
Fe1366     O1369   2.036       .  S
Fe1366     O1373   2.044       .  S
Fe1366     O1377   2.037       .  S
Fe1366     O1382   2.037       .  S
Fe1366     O1376   1.982       .  S
Fe1367     O1385   2.144       .  S
Fe1367     O1372   2.098       .  S
Fe1367     O1379   2.126       .  S
Fe1367     O1368   2.131       .  S
Fe1367     O1376   1.959       .  S
O1368      C1375   1.279       .  A
O1369      C1383   1.260       .  A
O1370      C1375   1.262       .  A
O1371      C1374   1.265       .  A
O1372      C1384   1.276       .  A
O1373      C1386   1.262       .  A
C1374      O1379   1.283       .  A
C1374      C2320   1.459       .  S
C1375      C2256   1.460       .  S
O1377      C1380   1.258       .  A
O1378      C1380   1.262       .  A
C1380      C2444   1.409       .  S
O1381      C1386   1.263       .  A
O1382      C1384   1.262       .  A
C1383      O1385   1.284       .  A
C1383      C2372   1.461       .  S
C1384      C2211   1.437       .  S
C1386      C2239   1.408       .  S
Fe1387     O1403   2.037       .  S
Fe1387     O1393   2.052   1_455  S
Fe1387     O1400   2.039       .  S
Fe1387     O1392   2.043       .  S
Fe1387     O1398   1.957       .  S
Fe1388     O1391   2.039       .  S
Fe1388     O1395   2.048       .  S
Fe1388     O1399   2.039       .  S
Fe1388     O1404   2.038       .  S
Fe1388     O1398   1.980       .  S
Fe1389     O1407   2.146       .  S
Fe1389     O1394   2.098       .  S
Fe1389     O1401   2.133   1_455  S
Fe1389     O1390   2.130       .  S
Fe1389     O1398   1.958       .  S
O1390      C1397   1.278       .  A
O1391      C1405   1.260       .  A
O1392      C1397   1.261       .  A
O1393      C1396   1.265       .  A
O1394      C1406   1.276       .  A
O1395      C1408   1.263       .  A
C1396      O1401   1.285       .  A
C1396      C2210   1.463       .  S
C1397      C2594   1.457       .  S
O1399      C1402   1.258       .  A
O1400      C1402   1.262       .  A
C1402      C2208   1.410       .  S
O1403      C1408   1.264       .  A
O1404      C1406   1.262       .  A
C1405      O1407   1.284       .  A
C1405      C2382   1.464       .  S
C1406      C2212   1.437       .  S
C1408      C2493   1.411       .  S
Fe1409     O1425   2.028       .  S
Fe1409     O1415   2.046       .  S
Fe1409     O1422   2.057   1_545  S
Fe1409     O1414   2.039   1_455  S
Fe1409     O1420   1.954       .  S
Fe1410     O1413   2.012   1_565  S
Fe1410     O1417   2.045       .  S
Fe1410     O1421   2.027       .  S
Fe1410     O1426   2.031       .  S
Fe1410     O1420   1.981   1_565  S
Fe1411     O1429   2.129       .  S
Fe1411     O1416   2.131       .  S
Fe1411     O1423   2.121       .  S
Fe1411     O1412   2.149   1_455  S
Fe1411     O1420   1.961       .  S
O1412      C1419   1.290       .  A
O1413      C1427   1.260       .  A
O1414      C1419   1.266       .  A
O1415      C1418   1.259       .  A
O1416      C1428   1.278       .  A
O1417      C1430   1.259       .  A
C1418      O1423   1.274       .  A
C1418      C2205   1.461       .  S
C1419      C2270   1.460       .  S
O1421      C1424   1.259       .  A
O1422      C1424   1.268       .  A
C1424      C2670   1.408       .  S
O1425      C1430   1.258   1_545  A
O1426      C1428   1.256   1_565  A
C1427      O1429   1.286       .  A
C1427      C2204   1.436       .  S
C1428      C2201   1.458   1_545  S
C1430      C2247   1.405       .  S
Fe1431     O1447   2.028       .  S
Fe1431     O1437   2.027       .  S
Fe1431     O1444   2.043       .  S
Fe1431     O1436   2.018       .  S
Fe1431     O1442   1.976       .  S
Fe1432     O1435   2.024       .  S
Fe1432     O1439   2.064       .  S
Fe1432     O1443   2.022       .  S
Fe1432     O1448   2.049       .  S
Fe1432     O1442   1.948       .  S
Fe1433     O1451   2.144       .  S
Fe1433     O1438   2.122       .  S
Fe1433     O1445   2.135       .  S
Fe1433     O1434   2.127       .  S
Fe1433     O1442   1.955       .  S
O1434      C1441   1.287       .  A
O1435      C1449   1.264       .  A
O1436      C1441   1.262       .  A
O1437      C1440   1.254       .  A
O1438      C1450   1.274       .  A
O1439      C1452   1.269       .  A
C1440      O1445   1.279       .  A
C1440      C2193   1.459       .  S
C1441      C2203   1.438       .  S
O1443      C1446   1.256       .  A
O1444      C1446   1.258       .  A
C1446      C2199   1.402       .  S
O1447      C1452   1.260       .  A
O1448      C1450   1.260       .  A
C1449      O1451   1.289       .  A
C1449      C2195   1.449       .  S
C1450      C2197   1.463       .  S
C1452      C2434   1.410       .  S
Fe1453     O1469   2.036       .  S
Fe1453     O1459   2.057       .  S
Fe1453     O1466   2.047       .  S
Fe1453     O1458   2.049       .  S
Fe1453     O1464   1.945       .  S
Fe1454     O1457   2.037       .  S
Fe1454     O1461   2.042       .  S
Fe1454     O1465   2.041       .  S
Fe1454     O1470   2.037       .  S
Fe1454     O1464   1.973       .  S
Fe1455     O1473   2.154       .  S
Fe1455     O1460   2.095       .  S
Fe1455     O1467   2.127       .  S
Fe1455     O1456   2.129       .  S
Fe1455     O1464   1.947       .  S
O1456      C1463   1.279       .  A
O1457      C1471   1.261       .  A
O1458      C1463   1.264       .  A
O1459      C1462   1.266       .  A
O1460      C1472   1.274       .  A
O1461      C1474   1.262       .  A
C1462      O1467   1.284       .  A
C1462      C2340   1.461       .  S
C1463      C2370   1.457       .  S
O1465      C1468   1.259       .  A
O1466      C1468   1.264       .  A
C1468      C2455   1.411       .  S
O1469      C1474   1.264       .  A
O1470      C1472   1.261       .  A
C1471      O1473   1.287       .  A
C1471      C2402   1.464       .  S
C1472      C2191   1.434       .  S
C1474      C2544   1.405       .  S
Fe1475     O1491   2.037       .  S
Fe1475     O1481   2.055   1_554  S
Fe1475     O1488   2.047       .  S
Fe1475     O1480   2.045       .  S
Fe1475     O1486   1.950       .  S
Fe1476     O1479   2.040       .  S
Fe1476     O1483   2.044       .  S
Fe1476     O1487   2.046       .  S
Fe1476     O1492   2.037       .  S
Fe1476     O1486   1.975       .  S
Fe1477     O1495   2.142       .  S
Fe1477     O1482   2.092       .  S
Fe1477     O1489   2.122   1_554  S
Fe1477     O1478   2.124       .  S
Fe1477     O1486   1.955       .  S
O1478      C1485   1.278       .  A
O1479      C1493   1.261       .  A
O1480      C1485   1.263       .  A
O1481      C1484   1.266       .  A
O1482      C1494   1.274       .  A
O1483      C1496   1.263       .  A
C1484      O1489   1.282       .  A
C1484      C2187   1.458       .  S
C1485      C2610   1.454       .  S
O1487      C1490   1.260       .  A
O1488      C1490   1.263       .  A
C1490      C2189   1.416       .  S
O1491      C1496   1.265       .  A
O1492      C1494   1.261       .  A
C1493      O1495   1.284       .  A
C1493      C2412   1.461       .  S
C1494      C2192   1.434       .  S
C1496      C2228   1.408       .  S
Fe1497     O1513   2.035       .  S
Fe1497     O1503   2.047       .  S
Fe1497     O1510   2.036       .  S
Fe1497     O1502   2.039       .  S
Fe1497     O1508   1.962       .  S
Fe1498     O1501   2.035       .  S
Fe1498     O1505   2.046       .  S
Fe1498     O1509   2.035       .  S
Fe1498     O1514   2.035       .  S
Fe1498     O1508   1.984       .  S
Fe1499     O1517   2.124       .  S
Fe1499     O1504   2.113       .  S
Fe1499     O1511   2.137       .  S
Fe1499     O1500   2.112       .  S
Fe1499     O1508   1.967       .  S
O1500      C1507   1.274       .  A
O1501      C1515   1.259       .  A
O1502      C1507   1.261       .  A
O1503      C1506   1.263       .  A
O1504      C1516   1.280       .  A
O1505      C1518   1.263       .  A
C1506      O1511   1.284       .  A
C1506      C2183   1.463       .  S
C1507      C2638   1.447       .  S
O1509      C1512   1.256       .  A
O1510      C1512   1.260       .  A
C1512      C2292   1.409       .  S
O1513      C1518   1.264       .  A
O1514      C1516   1.262       .  A
C1515      O1517   1.279       .  A
C1515      C2502   1.452       .  S
C1516      C2185   1.443       .  S
C1518      C2374   1.410       .  S
Fe1519     O1535   2.038   1_455  S
Fe1519     O1525   2.052       .  S
Fe1519     O1532   2.041       .  S
Fe1519     O1524   2.044       .  S
Fe1519     O1530   1.956       .  S
Fe1520     O1523   2.039       .  S
Fe1520     O1527   2.052       .  S
Fe1520     O1531   2.035       .  S
Fe1520     O1536   2.048   1_655  S
Fe1520     O1530   1.980   1_655  S
Fe1521     O1539   2.128       .  S
Fe1521     O1526   2.102       .  S
Fe1521     O1533   2.128       .  S
Fe1521     O1522   2.115       .  S
Fe1521     O1530   1.961       .  S
O1522      C1529   1.274       .  A
O1523      C1537   1.261   1_655  A
O1524      C1529   1.261       .  A
O1525      C1528   1.266       .  A
O1526      C1538   1.277       .  A
O1527      C1540   1.263       .  A
C1528      O1533   1.284       .  A
C1528      C2206   1.459       .  S
C1529      C2249   1.452       .  S
O1531      C1534   1.258       .  A
O1532      C1534   1.263   1_455  A
C1534      C2514   1.408       .  S
O1535      C1540   1.263       .  A
O1536      C1538   1.264       .  A
C1537      O1539   1.280       .  A
C1537      C2492   1.453   1_455  S
C1538      C2186   1.444       .  S
C1540      C2267   1.414       .  S
Fe1541     O1557   2.033       .  S
Fe1541     O1547   2.049       .  S
Fe1541     O1554   2.052       .  S
Fe1541     O1546   2.045       .  S
Fe1541     O1552   1.959       .  S
Fe1542     O1545   2.010       .  S
Fe1542     O1549   2.038       .  S
Fe1542     O1553   2.025       .  S
Fe1542     O1558   2.027       .  S
Fe1542     O1552   1.987       .  S
Fe1543     O1561   2.102       .  S
Fe1543     O1548   2.136       .  S
Fe1543     O1555   2.128       .  S
Fe1543     O1544   2.124       .  S
Fe1543     O1552   1.970       .  S
O1544      C1551   1.283       .  A
O1545      C1559   1.259       .  A
O1546      C1551   1.267       .  A
O1547      C1550   1.260       .  A
O1548      C1560   1.280       .  A
O1549      C1562   1.257       .  A
C1550      O1555   1.276       .  A
C1550      C2216   1.465       .  S
C1551      C2408   1.452       .  S
O1553      C1556   1.258       .  A
O1554      C1556   1.267       .  A
C1556      C2179   1.407       .  S
O1557      C1562   1.259       .  A
O1558      C1560   1.255       .  A
C1559      O1561   1.279       .  A
C1559      C2181   1.425       .  S
C1560      C2194   1.459       .  S
C1562      C2600   1.407       .  S
Fe1563     O1579   2.030       .  S
Fe1563     O1569   2.049       .  S
Fe1563     O1576   2.055   1_565  S
Fe1563     O1568   2.039   1_455  S
Fe1563     O1574   1.955       .  S
Fe1564     O1567   2.005       .  S
Fe1564     O1571   2.046       .  S
Fe1564     O1575   2.020   1_565  S
Fe1564     O1580   2.033       .  S
Fe1564     O1574   1.983       .  S
Fe1565     O1583   2.110       .  S
Fe1565     O1570   2.128       .  S
Fe1565     O1577   2.119       .  S
Fe1565     O1566   2.129   1_455  S
Fe1565     O1574   1.965       .  S
O1566      C1573   1.284       .  A
O1567      C1581   1.259       .  A
O1568      C1573   1.266       .  A
O1569      C1572   1.261       .  A
O1570      C1582   1.278       .  A
O1571      C1584   1.258       .  A
C1572      O1577   1.274       .  A
C1572      C2440   1.460       .  S
C1573      C2451   1.451       .  S
O1575      C1578   1.258       .  A
O1576      C1578   1.268       .  A
C1578      C2177   1.404       .  S
O1579      C1584   1.258       .  A
O1580      C1582   1.256       .  A
C1581      O1583   1.282       .  A
C1581      C2182   1.424       .  S
C1582      C2202   1.458       .  S
C1584      C2175   1.409       .  S
Fe1585     O1601   2.027       .  S
Fe1585     O1591   2.047       .  S
Fe1585     O1598   2.049       .  S
Fe1585     O1590   2.042       .  S
Fe1585     O1596   1.958       .  S
Fe1586     O1589   2.009       .  S
Fe1586     O1593   2.042       .  S
Fe1586     O1597   2.023       .  S
Fe1586     O1602   2.034       .  S
Fe1586     O1596   1.988       .  S
Fe1587     O1605   2.098       .  S
Fe1587     O1592   2.138       .  S
Fe1587     O1599   2.131       .  S
Fe1587     O1588   2.125       .  S
Fe1587     O1596   1.967       .  S
O1588      C1595   1.283       .  A
O1589      C1603   1.260       .  A
O1590      C1595   1.266       .  A
O1591      C1594   1.260       .  A
O1592      C1604   1.280       .  A
O1593      C1606   1.257       .  A
C1594      O1599   1.277       .  A
C1594      C2184   1.466       .  S
C1595      C2379   1.451       .  S
O1597      C1600   1.259       .  A
O1598      C1600   1.267       .  A
C1600      C2171   1.403       .  S
O1601      C1606   1.257       .  A
O1602      C1604   1.256       .  A
C1603      O1605   1.279       .  A
C1603      C2173   1.420       .  S
C1604      C2425   1.464       .  S
C1606      C2635   1.406       .  S
Fe1607     O1623   2.031       .  S
Fe1607     O1613   2.047       .  S
Fe1607     O1620   2.054   1_556  S
Fe1607     O1612   2.041   1_545  S
Fe1607     O1618   1.956       .  S
Fe1608     O1611   2.008       .  S
Fe1608     O1615   2.045       .  S
Fe1608     O1619   2.027   1_556  S
Fe1608     O1624   2.034       .  S
Fe1608     O1618   1.983       .  S
Fe1609     O1627   2.100       .  S
Fe1609     O1614   2.132       .  S
Fe1609     O1621   2.124       .  S
Fe1609     O1610   2.126   1_545  S
Fe1609     O1618   1.969       .  S
O1610      C1617   1.284       .  A
O1611      C1625   1.260       .  A
O1612      C1617   1.266       .  A
O1613      C1616   1.260       .  A
O1614      C1626   1.279       .  A
O1615      C1628   1.258       .  A
C1616      O1621   1.275       .  A
C1616      C2464   1.462       .  S
C1617      C2438   1.450       .  S
O1619      C1622   1.260       .  A
O1620      C1622   1.268       .  A
C1622      C2176   1.407       .  S
O1623      C1628   1.258       .  A
O1624      C1626   1.256       .  A
C1625      O1627   1.280       .  A
C1625      C2174   1.419       .  S
C1626      C2418   1.461       .  S
C1628      C2170   1.409       .  S
Fe1629     O1645   2.026       .  S
Fe1629     O1635   2.042       .  S
Fe1629     O1642   2.050       .  S
Fe1629     O1634   2.035       .  S
Fe1629     O1640   1.957       .  S
Fe1630     O1633   2.008       .  S
Fe1630     O1637   2.048       .  S
Fe1630     O1641   2.027       .  S
Fe1630     O1646   2.037       .  S
Fe1630     O1640   1.985       .  S
Fe1631     O1649   2.104       .  S
Fe1631     O1636   2.143       .  S
Fe1631     O1643   2.128       .  S
Fe1631     O1632   2.129       .  S
Fe1631     O1640   1.967       .  S
O1632      C1639   1.285       .  A
O1633      C1647   1.260       .  A
O1634      C1639   1.265       .  A
O1635      C1638   1.259       .  A
O1636      C1648   1.281       .  A
O1637      C1650   1.258       .  A
C1638      O1643   1.276       .  A
C1638      C2242   1.461       .  S
C1639      C2262   1.450       .  S
O1641      C1644   1.259       .  A
O1642      C1644   1.267       .  A
C1644      C2165   1.406       .  S
O1645      C1650   1.257       .  A
O1646      C1648   1.257       .  A
C1647      O1649   1.280       .  A
C1647      C2167   1.422       .  S
C1648      C2163   1.468       .  S
C1650      C2621   1.409       .  S
Fe1651     O1667   2.027       .  S
Fe1651     O1657   2.044       .  S
Fe1651     O1664   2.053   1_655  S
Fe1651     O1656   2.039   1_554  S
Fe1651     O1662   1.957       .  S
Fe1652     O1655   2.011       .  S
Fe1652     O1659   2.042   1_655  S
Fe1652     O1663   2.028   1_655  S
Fe1652     O1668   2.033       .  S
Fe1652     O1662   1.985       .  S
Fe1653     O1671   2.101       .  S
Fe1653     O1658   2.139       .  S
Fe1653     O1665   2.126       .  S
Fe1653     O1654   2.127   1_554  S
Fe1653     O1662   1.967       .  S
O1654      C1661   1.284       .  A
O1655      C1669   1.260       .  A
O1656      C1661   1.266       .  A
O1657      C1660   1.259       .  A
O1658      C1670   1.280       .  A
O1659      C1672   1.257   1_455  A
C1660      O1665   1.275       .  A
C1660      C2454   1.462       .  S
C1661      C2468   1.450       .  S
O1663      C1666   1.260       .  A
O1664      C1666   1.267       .  A
C1666      C2169   1.408       .  S
O1667      C1672   1.257       .  A
O1668      C1670   1.256       .  A
C1669      O1671   1.280       .  A
C1669      C2168   1.423       .  S
C1670      C2162   1.465       .  S
C1672      C2178   1.405       .  S
Fe1673     O1689   2.030       .  S
Fe1673     O1679   2.049       .  S
Fe1673     O1686   2.051   1_455  S
Fe1673     O1678   2.042   1_554  S
Fe1673     O1684   1.961       .  S
Fe1674     O1677   2.004   1_655  S
Fe1674     O1681   2.045       .  S
Fe1674     O1685   2.024       .  S
Fe1674     O1690   2.035       .  S
Fe1674     O1684   1.988   1_655  S
Fe1675     O1693   2.090       .  S
Fe1675     O1680   2.140       .  S
Fe1675     O1687   2.135       .  S
Fe1675     O1676   2.118   1_554  S
Fe1675     O1684   1.972       .  S
O1676      C1683   1.281       .  A
O1677      C1691   1.258       .  A
O1678      C1683   1.266       .  A
O1679      C1682   1.260       .  A
O1680      C1692   1.281       .  A
O1681      C1694   1.258   1_655  A
C1682      O1687   1.278       .  A
C1682      C2213   1.468       .  S
C1683      C2384   1.449       .  S
O1685      C1688   1.258       .  A
O1686      C1688   1.267       .  A
C1688      C2577   1.406       .  S
O1689      C1694   1.258       .  A
O1690      C1692   1.257   1_655  A
C1691      O1693   1.276       .  A
C1691      C2159   1.414       .  S
C1692      C2161   1.465       .  S
C1694      C2360   1.409   1_455  S
Fe1695     O1711   2.035       .  S
Fe1695     O1701   2.049       .  S
Fe1695     O1708   2.052       .  S
Fe1695     O1700   2.048       .  S
Fe1695     O1706   1.958       .  S
Fe1696     O1699   2.007       .  S
Fe1696     O1703   2.040       .  S
Fe1696     O1707   2.019       .  S
Fe1696     O1712   2.035       .  S
Fe1696     O1706   1.986       .  S
Fe1697     O1715   2.091       .  S
Fe1697     O1702   2.142       .  S
Fe1697     O1709   2.131       .  S
Fe1697     O1698   2.118       .  S
Fe1697     O1706   1.967       .  S
O1698      C1705   1.282       .  A
O1699      C1713   1.260       .  A
O1700      C1705   1.268       .  A
O1701      C1704   1.260       .  A
O1702      C1714   1.280       .  A
O1703      C1716   1.256       .  A
C1704      O1709   1.276       .  A
C1704      C2156   1.467       .  S
C1705      C2157   1.449       .  S
O1707      C1710   1.258       .  A
O1708      C1710   1.268       .  A
C1710      C2200   1.401       .  S
O1711      C1716   1.259       .  A
O1712      C1714   1.255       .  A
C1713      O1715   1.278       .  A
C1713      C2160   1.415       .  S
C1714      C2164   1.468       .  S
C1716      C2428   1.408       .  S
Fe1717     O1733   2.027       .  S
Fe1717     O1723   2.048       .  S
Fe1717     O1730   2.057       .  S
Fe1717     O1722   2.038       .  S
Fe1717     O1728   1.959       .  S
Fe1718     O1721   2.006       .  S
Fe1718     O1725   2.042       .  S
Fe1718     O1729   2.024       .  S
Fe1718     O1734   2.031       .  S
Fe1718     O1728   1.986       .  S
Fe1719     O1737   2.104       .  S
Fe1719     O1724   2.148       .  S
Fe1719     O1731   2.136       .  S
Fe1719     O1720   2.132       .  S
Fe1719     O1728   1.967       .  S
O1720      C1727   1.285       .  A
O1721      C1735   1.259       .  A
O1722      C1727   1.266       .  A
O1723      C1726   1.260       .  A
O1724      C1736   1.283       .  A
O1725      C1738   1.257       .  A
C1726      O1731   1.278       .  A
C1726      C2490   1.468       .  S
C1727      C2526   1.452       .  S
O1729      C1732   1.259       .  A
O1730      C1732   1.268       .  A
C1732      C2153   1.408       .  S
O1733      C1738   1.257       .  A
O1734      C1736   1.255       .  A
C1735      O1737   1.280       .  A
C1735      C2150   1.421       .  S
C1736      C2336   1.468       .  S
C1738      C2151   1.406       .  S
Fe1739     O1755   2.029       .  S
Fe1739     O1745   2.047       .  S
Fe1739     O1752   2.048       .  S
Fe1739     O1744   2.038       .  S
Fe1739     O1750   1.961       .  S
Fe1740     O1743   2.009       .  S
Fe1740     O1747   2.051       .  S
Fe1740     O1751   2.022       .  S
Fe1740     O1756   2.044       .  S
Fe1740     O1750   1.988       .  S
Fe1741     O1759   2.098       .  S
Fe1741     O1746   2.143       .  S
Fe1741     O1753   2.133       .  S
Fe1741     O1742   2.118       .  S
Fe1741     O1750   1.970       .  S
O1742      C1749   1.281       .  A
O1743      C1757   1.259       .  A
O1744      C1749   1.265       .  A
O1745      C1748   1.260       .  A
O1746      C1758   1.281       .  A
O1747      C1760   1.260       .  A
C1748      O1753   1.277       .  A
C1748      C2209   1.466       .  S
C1749      C2500   1.446       .  S
O1751      C1754   1.258       .  A
O1752      C1754   1.267       .  A
C1754      C2147   1.403       .  S
O1755      C1760   1.258       .  A
O1756      C1758   1.258       .  A
C1757      O1759   1.278       .  A
C1757      C2149   1.422       .  S
C1758      C2328   1.472       .  S
C1760      C2592   1.411       .  S
Fe1761     O1777   2.032       .  S
Fe1761     O1767   2.042       .  S
Fe1761     O1774   2.051       .  S
Fe1761     O1766   2.043       .  S
Fe1761     O1772   1.960       .  S
Fe1762     O1765   2.008       .  S
Fe1762     O1769   2.041       .  S
Fe1762     O1773   2.024       .  S
Fe1762     O1778   2.032       .  S
Fe1762     O1772   1.986       .  S
Fe1763     O1781   2.107       .  S
Fe1763     O1768   2.151       .  S
Fe1763     O1775   2.137       .  S
Fe1763     O1764   2.131       .  S
Fe1763     O1772   1.967       .  S
O1764      C1771   1.285       .  A
O1765      C1779   1.260       .  A
O1766      C1771   1.266       .  A
O1767      C1770   1.259       .  A
O1768      C1780   1.283       .  A
O1769      C1782   1.257       .  A
C1770      O1775   1.278       .  A
C1770      C2259   1.465       .  S
C1771      C2280   1.453       .  S
O1773      C1776   1.259       .  A
O1774      C1776   1.267       .  A
C1776      C2618   1.405       .  S
O1777      C1782   1.258       .  A
O1778      C1780   1.255       .  A
C1779      O1781   1.281       .  A
C1779      C2146   1.423       .  S
C1780      C2364   1.471       .  S
C1782      C2166   1.408       .  S
Fe1783     O1799   2.028       .  S
Fe1783     O1789   2.045       .  S
Fe1783     O1796   2.054       .  S
Fe1783     O1788   2.037   1_655  S
Fe1783     O1794   1.954       .  S
Fe1784     O1787   2.012       .  S
Fe1784     O1791   2.040       .  S
Fe1784     O1795   2.027       .  S
Fe1784     O1800   2.029       .  S
Fe1784     O1794   1.983       .  S
Fe1785     O1803   2.103       .  S
Fe1785     O1790   2.125       .  S
Fe1785     O1797   2.116       .  S
Fe1785     O1786   2.124   1_655  S
Fe1785     O1794   1.966       .  S
O1786      C1793   1.283       .  A
O1787      C1801   1.260       .  A
O1788      C1793   1.266       .  A
O1789      C1792   1.259       .  A
O1790      C1802   1.277       .  A
O1791      C1804   1.257       .  A
C1792      O1797   1.273       .  A
C1792      C2498   1.458       .  S
C1793      C2144   1.447       .  S
O1795      C1798   1.259       .  A
O1796      C1798   1.267       .  A
C1798      C2587   1.407       .  S
O1799      C1804   1.258       .  A
O1800      C1802   1.255       .  A
C1801      O1803   1.280       .  A
C1801      C2145   1.425       .  S
C1802      C2358   1.455       .  S
C1804      C2148   1.405       .  S
Fe1805     O1821   2.035       .  S
Fe1805     O1811   2.050       .  S
Fe1805     O1818   2.046       .  S
Fe1805     O1810   2.041       .  S
Fe1805     O1816   1.952       .  S
Fe1806     O1809   2.035       .  S
Fe1806     O1813   2.048       .  S
Fe1806     O1817   2.042       .  S
Fe1806     O1822   2.030       .  S
Fe1806     O1816   1.976       .  S
Fe1807     O1825   2.140       .  S
Fe1807     O1812   2.101       .  S
Fe1807     O1819   2.128       .  S
Fe1807     O1808   2.125       .  S
Fe1807     O1816   1.957       .  S
O1808      C1815   1.279       .  A
O1809      C1823   1.260       .  A
O1810      C1815   1.263       .  A
O1811      C1814   1.263       .  A
O1812      C1824   1.276       .  A
O1813      C1826   1.264       .  A
C1814      O1819   1.282       .  A
C1814      C2198   1.460       .  S
C1815      C2158   1.451       .  S
O1817      C1820   1.258       .  A
O1818      C1820   1.262       .  A
C1820      C2138   1.415       .  S
O1821      C1826   1.264       .  A
O1822      C1824   1.260       .  A
C1823      O1825   1.284       .  A
C1823      C2290   1.458       .  S
C1824      C2142   1.435       .  S
C1826      C2139   1.409       .  S
Fe1827     O1843   2.039       .  S
Fe1827     O1833   2.052       .  S
Fe1827     O1840   2.045       .  S
Fe1827     O1832   2.045       .  S
Fe1827     O1838   1.950       .  S
Fe1828     O1831   2.037       .  S
Fe1828     O1835   2.044       .  S
Fe1828     O1839   2.040       .  S
Fe1828     O1844   2.041       .  S
Fe1828     O1838   1.975       .  S
Fe1829     O1847   2.136       .  S
Fe1829     O1834   2.093       .  S
Fe1829     O1841   2.118       .  S
Fe1829     O1830   2.117       .  S
Fe1829     O1838   1.956       .  S
O1830      C1837   1.275       .  A
O1831      C1845   1.260       .  A
O1832      C1837   1.262       .  A
O1833      C1836   1.266       .  A
O1834      C1846   1.274       .  A
O1835      C1848   1.262       .  A
C1836      O1841   1.281       .  A
C1836      C2590   1.454       .  S
C1837      C2143   1.451       .  S
O1839      C1842   1.259       .  A
O1840      C1842   1.263       .  A
C1842      C2495   1.412       .  S
O1843      C1848   1.264       .  A
O1844      C1846   1.262       .  A
C1845      O1847   1.282       .  A
C1845      C2286   1.456       .  S
C1846      C2141   1.437       .  S
C1848      C2207   1.409       .  S
Fe1849     O1865   2.027       .  S
Fe1849     O1855   2.048       .  S
Fe1849     O1862   2.054       .  S
Fe1849     O1854   2.038       .  S
Fe1849     O1860   1.959       .  S
Fe1850     O1853   2.000       .  S
Fe1850     O1857   2.047       .  S
Fe1850     O1861   2.019       .  S
Fe1850     O1866   2.032       .  S
Fe1850     O1860   1.985       .  S
Fe1851     O1869   2.096       .  S
Fe1851     O1856   2.149       .  S
Fe1851     O1863   2.143       .  S
Fe1851     O1852   2.125       .  S
Fe1851     O1860   1.968       .  S
O1852      C1859   1.284       .  A
O1853      C1867   1.258       .  A
O1854      C1859   1.266       .  A
O1855      C1858   1.259       .  A
O1856      C1868   1.283       .  A
O1857      C1870   1.259       .  A
C1858      O1863   1.279       .  A
C1858      C2406   1.472       .  S
C1859      C2306   1.449       .  S
O1861      C1864   1.257       .  A
O1862      C1864   1.267       .  A
C1864      C2595   1.404       .  S
O1865      C1870   1.257       .  A
O1866      C1868   1.256       .  A
C1867      O1869   1.278       .  A
C1867      C2135   1.414       .  S
C1868      C2251   1.469       .  S
C1870      C2180   1.408       .  S
Fe1871     O1887   2.032       .  S
Fe1871     O1877   2.052       .  S
Fe1871     O1884   2.058       .  S
Fe1871     O1876   2.035   1_565  S
Fe1871     O1882   1.954       .  S
Fe1872     O1875   2.011       .  S
Fe1872     O1879   2.043       .  S
Fe1872     O1883   2.028       .  S
Fe1872     O1888   2.021       .  S
Fe1872     O1882   1.983       .  S
Fe1873     O1891   2.087       .  S
Fe1873     O1878   2.125       .  S
Fe1873     O1885   2.125       .  S
Fe1873     O1874   2.113   1_565  S
Fe1873     O1882   1.972       .  S
O1874      C1881   1.280       .  A
O1875      C1889   1.260       .  A
O1876      C1881   1.265       .  A
O1877      C1880   1.261       .  A
O1878      C1890   1.276       .  A
O1879      C1892   1.258       .  A
C1880      O1885   1.275       .  A
C1880      C2536   1.466       .  S
C1881      C2131   1.442       .  S
O1883      C1886   1.259       .  A
O1884      C1886   1.268       .  A
C1886      C2628   1.411       .  S
O1887      C1892   1.259       .  A
O1888      C1890   1.253       .  A
C1889      O1891   1.277       .  A
C1889      C2136   1.417       .  S
C1890      C2246   1.451       .  S
C1892      C2133   1.411       .  S
Fe1893     O1909   2.033       .  S
Fe1893     O1899   2.046       .  S
Fe1893     O1906   2.050       .  S
Fe1893     O1898   2.043       .  S
Fe1893     O1904   1.961       .  S
Fe1894     O1897   2.007       .  S
Fe1894     O1901   2.041       .  S
Fe1894     O1905   2.023       .  S
Fe1894     O1910   2.033       .  S
Fe1894     O1904   1.988       .  S
Fe1895     O1913   2.097       .  S
Fe1895     O1900   2.149       .  S
Fe1895     O1907   2.138       .  S
Fe1895     O1896   2.122       .  S
Fe1895     O1904   1.970       .  S
O1896      C1903   1.282       .  A
O1897      C1911   1.259       .  A
O1898      C1903   1.266       .  A
O1899      C1902   1.260       .  A
O1900      C1912   1.283       .  A
O1901      C1914   1.257       .  A
C1902      O1907   1.279       .  A
C1902      C2564   1.468       .  S
C1903      C2487   1.451       .  S
O1905      C1908   1.259       .  A
O1906      C1908   1.267       .  A
C1908      C2152   1.404       .  S
O1909      C1914   1.258       .  A
O1910      C1912   1.255       .  A
C1911      O1913   1.278       .  A
C1911      C2128   1.419       .  S
C1912      C2352   1.470       .  S
C1914      C2129   1.410       .  S
Fe1915     O1931   2.029       .  S
Fe1915     O1921   2.043       .  S
Fe1915     O1928   2.051       .  S
Fe1915     O1920   2.040       .  S
Fe1915     O1926   1.957       .  S
Fe1916     O1919   2.007       .  S
Fe1916     O1923   2.053       .  S
Fe1916     O1927   2.025       .  S
Fe1916     O1932   2.044       .  S
Fe1916     O1926   1.984       .  S
Fe1917     O1935   2.101       .  S
Fe1917     O1922   2.136       .  S
Fe1917     O1929   2.123       .  S
Fe1917     O1918   2.130       .  S
Fe1917     O1926   1.967       .  S
O1918      C1925   1.285       .  A
O1919      C1933   1.260       .  A
O1920      C1925   1.266       .  A
O1921      C1924   1.259       .  A
O1922      C1934   1.280       .  A
O1923      C1936   1.259       .  A
C1924      O1929   1.275       .  A
C1924      C2188   1.460       .  S
C1925      C2229   1.453       .  S
O1927      C1930   1.260       .  A
O1928      C1930   1.268       .  A
C1930      C2125   1.404       .  S
O1931      C1936   1.257       .  A
O1932      C1934   1.258       .  A
C1933      O1935   1.280       .  A
C1933      C2127   1.420       .  S
C1934      C2342   1.468       .  S
C1936      C2608   1.412       .  S
Fe1937     O1953   2.028       .  S
Fe1937     O1943   2.041       .  S
Fe1937     O1950   2.045       .  S
Fe1937     O1942   2.038       .  S
Fe1937     O1948   1.964       .  S
Fe1938     O1941   2.015       .  S
Fe1938     O1945   2.046       .  S
Fe1938     O1949   2.032       .  S
Fe1938     O1954   2.036       .  S
Fe1938     O1948   1.987       .  S
Fe1939     O1957   2.103       .  S
Fe1939     O1944   2.135       .  S
Fe1939     O1951   2.132       .  S
Fe1939     O1940   2.128       .  S
Fe1939     O1948   1.973       .  S
O1940      C1947   1.283       .  A
O1941      C1955   1.260       .  A
O1942      C1947   1.264       .  A
O1943      C1946   1.259       .  A
O1944      C1956   1.280       .  A
O1945      C1958   1.259       .  A
C1946      O1951   1.277       .  A
C1946      C2527   1.462       .  S
C1947      C2565   1.452       .  S
O1949      C1952   1.260       .  A
O1950      C1952   1.265       .  A
C1952      C2130   1.408       .  S
O1953      C1958   1.258       .  A
O1954      C1956   1.257       .  A
C1955      O1957   1.279       .  A
C1955      C2123   1.425       .  S
C1956      C2318   1.463       .  S
C1958      C2154   1.408       .  S
Fe1959     O1975   2.049       .  S
Fe1959     O1965   2.051       .  S
Fe1959     O1972   2.055       .  S
Fe1959     O1964   2.035       .  S
Fe1959     O1970   1.955       .  S
Fe1960     O1963   2.093       .  S
Fe1960     O1967   2.119       .  S
Fe1960     O1971   2.100       .  S
Fe1960     O1976   2.096       .  S
Fe1960     O1970   1.968       .  S
Fe1961     O1979   2.037       .  S
Fe1961     O1966   2.026       .  S
Fe1961     O1973   2.035       .  S
Fe1961     O1962   2.040       .  S
Fe1961     O1970   1.982       .  S
O1962      C1969   1.258       .  A
O1963      C1977   1.270       .  A
O1964      C1969   1.261       .  A
O1965      C1968   1.266       .  A
O1966      C1978   1.263       .  A
O1967      C1980   1.282       .  A
C1968      O1973   1.261       .  A
C1968      C2134   1.409       .  S
C1969      C2631   1.406       .  S
O1971      C1974   1.269       .  A
O1972      C1974   1.261       .  A
C1974      C2222   1.456       .  S
O1975      C1980   1.268       .  A
O1976      C1978   1.278       .  A
C1977      O1979   1.258       .  A
C1977      C2312   1.442       .  S
C1978      C2124   1.427       .  S
C1980      C2538   1.451       .  S
Fe1981     O1997   2.030       .  S
Fe1981     O1987   2.041       .  S
Fe1981     O1994   2.048       .  S
Fe1981     O1986   2.042       .  S
Fe1981     O1992   1.959       .  S
Fe1982     O1985   2.017       .  S
Fe1982     O1989   2.036       .  S
Fe1982     O1993   2.032       .  S
Fe1982     O1998   2.026       .  S
Fe1982     O1992   1.986       .  S
Fe1983     O2001   2.112       .  S
Fe1983     O1988   2.142       .  S
Fe1983     O1995   2.130       .  S
Fe1983     O1984   2.137       .  S
Fe1983     O1992   1.967       .  S
O1984      C1991   1.287       .  A
O1985      C1999   1.261       .  A
O1986      C1991   1.266       .  A
O1987      C1990   1.258       .  A
O1988      C2000   1.281       .  A
O1989      C2002   1.256       .  A
C1990      O1995   1.276       .  A
C1990      C2377   1.463       .  S
C1991      C2294   1.456       .  S
O1993      C1996   1.260       .  A
O1994      C1996   1.266       .  A
C1996      C2641   1.408       .  S
O1997      C2002   1.258       .  A
O1998      C2000   1.254       .  A
C1999      O2001   1.282       .  A
C1999      C2122   1.430       .  S
C2000      C2394   1.463       .  S
C2002      C2172   1.405       .  S
Fe2003     O2019   2.029       .  S
Fe2003     O2009   2.044       .  S
Fe2003     O2016   2.050       .  S
Fe2003     O2008   2.038   1_556  S
Fe2003     O2014   1.961       .  S
Fe2004     O2007   2.016       .  S
Fe2004     O2011   2.041       .  S
Fe2004     O2015   2.028       .  S
Fe2004     O2020   2.033       .  S
Fe2004     O2014   1.986       .  S
Fe2005     O2023   2.108       .  S
Fe2005     O2010   2.142       .  S
Fe2005     O2017   2.131       .  S
Fe2005     O2006   2.127   1_556  S
Fe2005     O2014   1.968       .  S
O2006      C2013   1.284       .  A
O2007      C2021   1.261       .  A
O2008      C2013   1.266       .  A
O2009      C2012   1.259       .  A
O2010      C2022   1.281       .  A
O2011      C2024   1.258       .  A
C2012      O2017   1.276       .  A
C2012      C2234   1.465       .  S
C2013      C2119   1.449       .  S
O2015      C2018   1.259       .  A
O2016      C2018   1.266       .  A
C2018      C2612   1.407       .  S
O2019      C2024   1.258       .  A
O2020      C2022   1.256       .  A
C2021      O2023   1.281       .  A
C2021      C2121   1.430       .  S
C2022      C2390   1.466       .  S
C2024      C2126   1.407       .  S
Fe2025     O2041   2.041       .  S
Fe2025     O2031   2.056       .  S
Fe2025     O2038   2.044       .  S
Fe2025     O2030   2.051       .  S
Fe2025     O2036   1.942       .  S
Fe2026     O2029   2.037       .  S
Fe2026     O2033   2.057       .  S
Fe2026     O2037   2.037       .  S
Fe2026     O2042   2.054       .  S
Fe2026     O2036   1.966       .  S
Fe2027     O2045   2.147       .  S
Fe2027     O2032   2.104       .  S
Fe2027     O2039   2.134       .  S
Fe2027     O2028   2.128       .  S
Fe2027     O2036   1.943       .  S
O2028      C2035   1.278       .  A
O2029      C2043   1.261       .  A
O2030      C2035   1.264       .  A
O2031      C2034   1.266       .  A
O2032      C2044   1.277       .  A
O2033      C2046   1.265       .  A
C2034      O2039   1.286       .  A
C2034      C2155   1.463       .  S
C2035      C2430   1.457       .  S
O2037      C2040   1.259       .  A
O2038      C2040   1.264       .  A
C2040      C2115   1.408       .  S
O2041      C2046   1.265       .  A
O2042      C2044   1.265       .  A
C2043      O2045   1.284       .  A
C2043      C2303   1.459       .  S
C2044      C2118   1.446       .  S
C2046      C2137   1.414       .  S
Fe2047     O2063   2.041       .  S
Fe2047     O2053   2.051       .  S
Fe2047     O2060   2.043       .  S
Fe2047     O2052   2.046       .  S
Fe2047     O2058   1.953       .  S
Fe2048     O2051   2.033       .  S
Fe2048     O2055   2.053       .  S
Fe2048     O2059   2.035       .  S
Fe2048     O2064   2.048       .  S
Fe2048     O2058   1.975       .  S
Fe2049     O2067   2.126       .  S
Fe2049     O2054   2.104       .  S
Fe2049     O2061   2.127       .  S
Fe2049     O2050   2.116       .  S
Fe2049     O2058   1.959       .  S
O2050      C2057   1.275       .  A
O2051      C2065   1.260       .  A
O2052      C2057   1.262       .  A
O2053      C2056   1.266       .  A
O2054      C2066   1.277       .  A
O2055      C2068   1.263       .  A
C2056      O2061   1.283       .  A
C2056      C2614   1.457       .  S
C2057      C2120   1.452       .  S
O2059      C2062   1.258       .  A
O2060      C2062   1.264       .  A
C2062      C2232   1.409       .  S
O2063      C2068   1.264       .  A
O2064      C2066   1.264       .  A
C2065      O2067   1.279       .  A
C2065      C2298   1.449       .  S
C2066      C2117   1.445       .  S
C2068      C2190   1.416       .  S
Fe2069     O2085   2.042       .  S
Fe2069     O2075   2.073       .  S
Fe2069     O2082   2.051       .  S
Fe2069     O2074   2.054       .  S
Fe2069     O2080   1.943       .  S
Fe2070     O2073   2.037       .  S
Fe2070     O2077   2.043       .  S
Fe2070     O2081   2.039       .  S
Fe2070     O2086   2.034       .  S
Fe2070     O2080   1.973       .  S
Fe2071     O2089   2.123       .  S
Fe2071     O2076   2.047       .  S
Fe2071     O2083   2.085       .  S
Fe2071     O2072   2.116       .  S
Fe2071     O2080   1.957       .  S
O2072      C2079   1.275       .  A
O2073      C2087   1.260       .  A
O2074      C2079   1.263       .  A
O2075      C2078   1.272       .  A
O2076      C2088   1.265       .  A
O2077      C2090   1.262       .  A
C2078      O2083   1.274       .  A
C2078      C2432   1.447       .  S
C2079      C2196   1.456       .  S
O2081      C2084   1.258       .  A
O2082      C2084   1.265       .  A
C2084      C2140   1.412       .  S
O2085      C2090   1.266       .  A
O2086      C2088   1.262       .  A
C2087      O2089   1.279       .  A
C2087      C2276   1.451       .  S
C2088      C2113   1.407       .  S
C2090      C2116   1.409       .  S
Fe2091     O2107   2.036       .  S
Fe2091     O2097   2.042       .  S
Fe2091     O2104   2.059       .  S
Fe2091     O2096   2.040       .  S
Fe2091     O2102   1.958       .  S
Fe2092     O2095   2.057       .  S
Fe2092     O2099   2.111       .  S
Fe2092     O2103   2.090       .  S
Fe2092     O2108   2.110       .  S
Fe2092     O2102   1.973       .  S
Fe2093     O2111   2.021       .  S
Fe2093     O2098   2.052       .  S
Fe2093     O2105   2.050       .  S
Fe2093     O2094   2.040       .  S
Fe2093     O2102   1.975       .  S
O2094      C2101   1.262       .  A
O2095      C2109   1.268       .  A
O2096      C2101   1.265       .  A
O2097      C2100   1.261       .  A
O2098      C2110   1.263       .  A
O2099      C2112   1.272       .  A
C2100      O2105   1.260       .  A
C2100      C2534   1.416       .  S
C2101      C2220   1.410       .  S
O2103      C2106   1.274       .  A
O2104      C2106   1.268       .  A
C2106      C2630   1.445       .  S
O2107      C2112   1.259       .  A
O2108      C2110   1.275       .  A
C2109      O2111   1.261       .  A
C2109      C2114   1.405       .  S
C2110      C2274   1.456       .  S
C2112      C2132   1.446       .  S
C2113      C2114   1.190       .  T
C2115      C2116   1.190       .  T
C2117      C2118   1.213       .  T
C2119      C2120   1.216       .  T
C2121      C2122   1.205       .  T
C2123      C2124   1.202       .  T
C2125      C2126   1.187       .  T
C2127      C2128   1.199       .  T
C2129      C2130   1.189       .  T
C2131      C2132   1.212       .  T
C2133      C2134   1.190       .  T
C2135      C2136   1.197       .  T
C2137      C2138   1.193       .  T
C2139      C2140   1.190       .  T
C2141      C2142   1.208       .  T
C2143      C2144   1.215       .  T
C2145      C2146   1.201       .  T
C2147      C2148   1.186       .  T
C2149      C2150   1.200       .  T
C2151      C2152   1.187       .  T
C2153      C2154   1.189       .  T
C2155      C2156   1.225       .  T
C2157      C2158   1.216       .  T
C2159      C2160   1.196       .  T
C2161      C2162   1.225   1_455  T
C2163      C2164   1.227   1_655  T
C2165      C2166   1.188       .  T
C2167      C2168   1.201       .  T
C2169      C2170   1.189   1_554  T
C2171      C2172   1.186       .  T
C2173      C2174   1.199       .  T
C2175      C2176   1.189   1_565  T
C2177      C2178   1.187   1_455  T
C2179      C2180   1.188       .  T
C2181      C2182   1.202       .  T
C2183      C2184   1.225       .  T
C2185      C2186   1.213       .  T
C2187      C2188   1.221       .  T
C2189      C2190   1.194       .  T
C2191      C2192   1.207       .  T
C2193      C2194   1.222   1_545  T
C2195      C2196   1.218       .  T
C2197      C2198   1.223       .  T
C2199      C2200   1.185       .  T
C2201      C2202   1.221       .  T
C2203      C2204   1.209       .  T
C2205      C2206   1.222       .  T
C2207      C2208   1.190       .  T
C2209      C2210   1.225       .  T
C2211      C2212   1.209       .  T
C2213      C2214   1.226       .  T
C2215      C2216   1.224       .  T
C2217      C2218   1.214       .  T
C2219      C2220   1.191       .  T
C2221      C2222   1.218       .  T
C2223      C2224   1.212       .  T
C2225      C2226   1.221       .  T
C2227      C2228   1.189   1_556  T
C2229      C2230   1.218       .  T
C2231      C2232   1.189       .  T
C2233      C2234   1.224       .  T
C2235      C2236   1.220   1_556  T
C2237      C2238   1.211       .  T
C2239      C2240   1.190       .  T
C2241      C2242   1.222       .  T
C2243      C2244   1.204       .  T
C2245      C2246   1.217       .  T
C2247      C2248   1.187       .  T
C2249      C2250   1.216       .  T
C2251      C2252   1.228       .  T
C2253      C2254   1.205       .  T
C2255      C2256   1.221       .  T
C2257      C2258   1.217       .  T
C2259      C2260   1.225       .  T
C2261      C2262   1.217       .  T
C2263      C2264   1.189       .  T
C2265      C2266   1.225       .  T
C2267      C2268   1.193       .  T
C2269      C2270   1.223       .  T
C2271      C2272   1.209       .  T
C2273      C2274   1.219       .  T
C2275      C2276   1.216       .  T
C2277      C2278   1.191       .  T
C2279      C2280   1.219       .  T
C2281      C2282   1.193       .  T
C2283      C2284   1.202       .  T
C2285      C2286   1.219       .  T
C2287      C2288   1.192       .  T
C2289      C2290   1.221       .  T
C2291      C2292   1.189       .  T
C2293      C2294   1.221       .  T
C2295      C2296   1.206       .  T
C2297      C2298   1.215       .  T
C2299      C2300   1.190       .  T
C2301      C2302   1.194       .  T
C2303      C2304   1.221       .  T
C2305      C2306   1.216       .  T
C2307      C2308   1.190       .  T
C2309      C2310   1.208       .  T
C2311      C2312   1.210       .  T
C2313      C2314   1.215       .  T
C2315      C2316   1.213       .  T
C2317      C2318   1.224       .  T
C2319      C2320   1.222       .  T
C2321      C2322   1.189       .  T
C2323      C2324   1.218       .  T
C2325      C2326   1.205       .  T
C2327      C2328   1.229       .  T
C2329      C2330   1.192       .  T
C2331      C2332   1.221       .  T
C2333      C2334   1.224       .  T
C2335      C2336   1.228       .  T
C2337      C2338   1.207       .  T
C2339      C2340   1.223       .  T
C2341      C2342   1.226       .  T
C2343      C2344   1.188       .  T
C2345      C2346   1.219       .  T
C2347      C2348   1.188       .  T
C2349      C2350   1.220       .  T
C2351      C2352   1.228       .  T
C2353      C2354   1.204       .  T
C2355      C2356   1.225       .  T
C2357      C2358   1.219       .  T
C2359      C2360   1.189       .  T
C2361      C2362   1.215       .  T
C2363      C2364   1.229       .  T
C2365      C2366   1.200       .  T
C2367      C2368   1.185       .  T
C2369      C2370   1.219       .  T
C2371      C2372   1.222       .  T
C2373      C2374   1.191       .  T
C2375      C2376   1.190       .  T
C2377      C2378   1.223       .  T
C2379      C2380   1.217       .  T
C2381      C2382   1.224       .  T
C2383      C2384   1.215       .  T
C2385      C2386   1.192       .  T
C2387      C2388   1.208       .  T
C2389      C2390   1.226       .  T
C2391      C2392   1.220       .  T
C2393      C2394   1.224       .  T
C2395      C2396   1.201       .  T
C2397      C2398   1.186       .  T
C2399      C2400   1.216       .  T
C2401      C2402   1.224       .  T
C2403      C2404   1.190       .  T
C2405      C2406   1.229       .  T
C2407      C2408   1.217       .  T
C2409      C2410   1.190       .  T
C2411      C2412   1.222       .  T
C2413      C2414   1.189       .  T
C2415      C2416   1.216       .  T
C2417      C2418   1.223       .  T
C2419      C2420   1.217       .  T
C2421      C2422   1.218       .  T
C2423      C2424   1.187       .  T
C2425      C2426   1.224   1_556  T
C2427      C2428   1.188       .  T
C2429      C2430   1.219       .  T
C2431      C2432   1.213       .  T
C2433      C2434   1.191       .  T
C2435      C2436   1.204       .  T
C2437      C2438   1.217       .  T
C2439      C2440   1.221       .  T
C2441      C2442   1.191       .  T
C2443      C2444   1.189       .  T
C2445      C2446   1.224       .  T
C2447      C2448   1.209       .  T
C2449      C2450   1.191       .  T
C2451      C2452   1.217       .  T
C2453      C2454   1.223       .  T
C2455      C2456   1.191       .  T
C2457      C2458   1.225       .  T
C2459      C2460   1.210       .  T
C2461      C2462   1.192       .  T
C2463      C2464   1.222       .  T
C2465      C2466   1.190       .  T
C2467      C2468   1.217       .  T
C2469      C2470   1.188       .  T
C2471      C2472   1.224       .  T
C2473      C2474   1.210       .  T
C2475      C2476   1.221   1_655  T
C2477      C2478   1.190   1_655  T
C2479      C2480   1.190       .  T
C2481      C2482   1.222       .  T
C2483      C2484   1.222   1_655  T
C2485      C2486   1.212       .  T
C2487      C2488   1.217       .  T
C2489      C2490   1.226       .  T
C2491      C2492   1.217       .  T
C2493      C2494   1.191   1_455  T
C2495      C2496   1.191       .  T
C2497      C2498   1.220       .  T
C2499      C2500   1.214       .  T
C2501      C2502   1.217   1_655  T
C2503      C2504   1.192       .  T
C2505      C2506   1.216       .  T
C2507      C2508   1.191       .  T
C2509      C2510   1.207       .  T
C2511      C2512   1.221       .  T
C2513      C2514   1.189       .  T
C2515      C2516   1.220       .  T
C2517      C2518   1.193       .  T
C2519      C2520   1.221   1_565  T
C2521      C2522   1.208       .  T
C2523      C2524   1.190       .  T
C2525      C2526   1.218       .  T
C2527      C2528   1.223       .  T
C2529      C2530   1.224       .  T
C2531      C2532   1.192       .  T
C2533      C2534   1.193       .  T
C2535      C2536   1.225       .  T
C2537      C2538   1.216       .  T
C2539      C2540   1.222   1_565  T
C2541      C2542   1.192       .  T
C2543      C2544   1.187       .  T
C2545      C2546   1.219       .  T
C2547      C2548   1.214       .  T
C2549      C2550   1.222       .  T
C2551      C2552   1.190       .  T
C2553      C2554   1.192       .  T
C2555      C2556   1.225       .  T
C2557      C2558   1.221   1_556  T
C2559      C2560   1.214       .  T
C2561      C2562   1.190       .  T
C2563      C2564   1.226       .  T
C2565      C2566   1.218       .  T
C2567      C2568   1.189       .  T
C2569      C2570   1.190       .  T
C2571      C2572   1.222       .  T
C2573      C2574   1.187       .  T
C2575      C2576   1.217       .  T
C2577      C2578   1.188   1_554  T
C2579      C2580   1.222       .  T
C2581      C2582   1.188       .  T
C2583      C2584   1.216       .  T
C2585      C2586   1.200       .  T
C2587      C2588   1.189       .  T
C2589      C2590   1.219       .  T
C2591      C2592   1.191       .  T
C2593      C2594   1.219       .  T
C2595      C2596   1.187       .  T
C2597      C2598   1.222       .  T
C2599      C2600   1.188       .  T
C2601      C2602   1.216       .  T
C2603      C2604   1.203       .  T
C2605      C2606   1.221   1_554  T
C2607      C2608   1.191       .  T
C2609      C2610   1.217       .  T
C2611      C2612   1.189       .  T
C2613      C2614   1.221       .  T
C2615      C2616   1.224   1_556  T
C2617      C2618   1.187       .  T
C2619      C2620   1.220       .  T
C2621      C2622   1.189       .  T
C2623      C2624   1.217       .  T
C2625      C2626   1.202       .  T
C2627      C2628   1.191       .  T
C2629      C2630   1.212       .  T
C2631      C2632   1.187       .  T
C2633      C2634   1.214       .  T
C2635      C2636   1.187       .  T
C2637      C2638   1.213       .  T
C2639      C2640   1.221       .  T
C2641      C2642   1.190       .  T
C2643      C2644   1.194       .  T
C2645      C2646   1.227   1_565  T
C2647      C2648   1.190       .  T
C2649      C2650   1.225       .  T
C2651      C2652   1.187       .  T
C2653      C2654   1.219       .  T
C2655      C2656   1.224       .  T
C2657      C2658   1.188   1_565  T
C2659      C2660   1.226       .  T
C2661      C2662   1.191       .  T
C2663      C2664   1.221       .  T
C2665      C2666   1.203       .  T
C2667      C2668   1.220   1_655  T
C2669      C2670   1.190       .  T
C2671      C2672   1.220       .  T
C2673      C2674   1.186       .  T
C2675      C2676   1.217       .  T
C2677      C2678   1.223   1_655  T
C2679      C2680   1.190       .  T
C2681      C2682   1.217       .  T
C2683      C2684   1.224       .  T
C2685      C2686   1.188       .  T
C2687      C2688   1.201       .  T
