geometry optimzed in LAMMPS
_audit_creation_date              2020-11-30 
_audit_creation_method            'lammps2cif' 
_symmetry_space_group_name_H-M    'P1' 
_symmetry_Int_Tables_number       1 
_symmetry_cell_setting            triclinic 
loop_ 
_symmetry_equiv_pos_as_xyz 
  x,y,z 
_cell_length_a                    44.20182583423526 
_cell_length_b                    44.17482292032053 
_cell_length_c                    32.40958184360556 
_cell_angle_alpha                 89.99597778039532 
_cell_angle_beta                  90.00418820449947 
_cell_angle_gamma                 90.01604535127636 
loop_ 
_atom_site_label 
_atom_site_type_symbol 
_atom_site_fract_x 
_atom_site_fract_y 
_atom_site_fract_z 
_atom_site_charge 
O1          O  0.05602022  0.37935108  0.28262006    -0.53030
C2          C  0.14342749  0.38453854  0.31771599     0.79600
O3          O  0.12054808  0.38432700  0.17942564    -0.54190
C4          C  0.03902720  0.39097485  0.25552334     0.79570
C5          C  0.10897615  0.46080310  0.24385363     0.81960
Cd6        Cd  0.10338919  0.39642434  0.24974440     1.37470
O7          O  0.11544460  0.37898286  0.31997716    -0.53030
O8          O  0.09484743  0.44827905  0.27309927    -0.51840
C9          C  0.11527407  0.35628280  0.18186925     0.81920
O10         O  0.12092980  0.44373541  0.21711393    -0.54210
O11         O  0.15338049  0.39398474  0.28351461    -0.52660
O12         O  0.05161717  0.40470791  0.22598016    -0.52650
O13         O  0.10610709  0.34631819  0.21620743    -0.51820
O14         O  0.93020099  0.37925418  0.28201902    -0.53030
C15         C  0.84286041  0.38506801  0.31732743     0.79600
O16         O  0.86531457  0.44403232  0.21637019    -0.54190
C17         C  0.94731329  0.39131052  0.25541859     0.79570
C18         C  0.87125509  0.35663427  0.18161796     0.81960
Cd19       Cd  0.88296713  0.39692111  0.24940050     1.37460
O20         O  0.87097599  0.38038080  0.32003144    -0.53030
O21         O  0.88025733  0.34674276  0.21607478    -0.51840
C22         C  0.87693659  0.46124093  0.24322079     0.81920
O23         O  0.86610980  0.38469047  0.17897760    -0.54210
O24         O  0.83283737  0.39366478  0.28274833    -0.52660
O25         O  0.93485630  0.40562718  0.22628996    -0.52650
O26         O  0.89099150  0.44888485  0.27266176    -0.51820
O27         O  0.11471397  0.63377283  0.31992206    -0.53030
C28         C  0.03832525  0.62249456  0.25515068     0.79600
O29         O  0.11982057  0.62908848  0.17913177    -0.54190
C30         C  0.14281489  0.62898005  0.31723677     0.79570
C31         C  0.10861178  0.55255863  0.24367993     0.81960
Cd32       Cd  0.10267839  0.61691472  0.24944268     1.37470
O33         O  0.05535644  0.63444007  0.28194346    -0.53030
O34         O  0.09474223  0.56503930  0.27318185    -0.51840
C35         C  0.11459955  0.65713733  0.18167079     0.81920
O36         O  0.12009876  0.56965754  0.21658971    -0.54210
O37         O  0.05086845  0.60831848  0.22596962    -0.52660
O38         O  0.15279482  0.62017247  0.28273822    -0.52650
O39         O  0.10539738  0.66704271  0.21601816    -0.51830
O40         O  0.86494714  0.57007841  0.21623304    -0.53030
C41         C  0.87040810  0.65752471  0.18152540     0.79600
O42         O  0.87038172  0.63442015  0.31967294    -0.54190
C43         C  0.87652663  0.55297064  0.24323467     0.79570
C44         C  0.94661004  0.62271885  0.25502791     0.81960
Cd45       Cd  0.88224820  0.61731737  0.24928535     1.37470
O46         O  0.86475175  0.62955058  0.17917880    -0.53030
O47         O  0.93402361  0.60870065  0.22573076    -0.51840
C48         C  0.84232580  0.62928659  0.31731209     0.81920
O49         O  0.92961563  0.63462412  0.28188502    -0.54210
O50         O  0.87992314  0.66739703  0.21573362    -0.52660
O51         O  0.89032655  0.56544424  0.27281026    -0.52650
O52         O  0.83225170  0.62021347  0.28298728    -0.51820
O53         O  0.36561562  0.06948585  0.28286059    -0.53030
C54         C  0.37134005  0.15697841  0.31808532     0.79600
O55         O  0.43050562  0.13421762  0.21737226    -0.54190
C56         C  0.37764454  0.05238923  0.25622075     0.79570
C57         C  0.34312230  0.12860821  0.18241877     0.81960
Cd58       Cd  0.38328672  0.11677505  0.25028873     1.37460
O59         O  0.36651689  0.12886505  0.32079394    -0.53030
O60         O  0.33319045  0.11949910  0.21680229    -0.51840
C61         C  0.44760907  0.12268638  0.24441037     0.81920
O62         O  0.37116526  0.13378397  0.17988620    -0.54210
O63         O  0.38012188  0.16694682  0.28356248    -0.52660
O64         O  0.39193335  0.06488167  0.22709483    -0.52650
O65         O  0.43514893  0.10878746  0.27391341    -0.51830
O66         O  0.42994084  0.87892568  0.21723547    -0.53030
C67         C  0.34263156  0.88452429  0.18209669     0.79600
O68         O  0.36556351  0.88420335  0.32048311    -0.54190
C69         C  0.44700322  0.89050637  0.24428950     0.79570
C70         C  0.37733133  0.96062389  0.25611036     0.81960
Cd71       Cd  0.38268035  0.89623137  0.25012704     1.37460
O72         O  0.37060012  0.87891518  0.17985152    -0.53030
O73         O  0.39153103  0.94808799  0.22694638    -0.51840
C74         C  0.37071763  0.85614128  0.31803179     0.81920
O75         O  0.36521720  0.94356391  0.28273505    -0.54210
O76         O  0.33268560  0.89394471  0.21631094    -0.52660
O77         O  0.43449753  0.90432131  0.27381985    -0.52650
O78         O  0.37977136  0.84613720  0.28366450    -0.51830
O79         O  0.61590849  0.13465068  0.18047347    -0.53030
C80         C  0.53930650  0.12296174  0.24459280     0.79600
O81         O  0.62092952  0.06984302  0.28324570    -0.54190
C82         C  0.64386433  0.12899815  0.18284823     0.79570
C83         C  0.61552591  0.15735606  0.31857514     0.81960
Cd84       Cd  0.60362898  0.11725294  0.25064412     1.37460
O85         O  0.55640917  0.13452894  0.21757565    -0.53030
O86         O  0.60654629  0.16735439  0.28416413    -0.51840
C87         C  0.60898047  0.05284463  0.25640822     0.81920
O88         O  0.62061710  0.12928287  0.32107943    -0.54210
O89         O  0.55177136  0.10916844  0.27417951    -0.52660
O90         O  0.65371049  0.11952551  0.21709339    -0.52650
O91         O  0.59493251  0.06544856  0.22715810    -0.51820
O92         O  0.62069116  0.94393331  0.28274105    -0.53030
C93         C  0.61497070  0.85644502  0.31775871     0.79600
O94         O  0.55578508  0.87935086  0.21709490    -0.54190
C95         C  0.60869719  0.96107499  0.25612241     0.79570
C96         C  0.64312136  0.88478445  0.18218472     0.81960
Cd97       Cd  0.60301475  0.89669502  0.25005233     1.37460
O98         O  0.61985599  0.88454606  0.32048049    -0.53030
O99         O  0.65309018  0.89385984  0.21656521    -0.51840
C100        C  0.53869745  0.89078326  0.24422185     0.81920
O101        O  0.61506374  0.87969388  0.17965216    -0.54210
O102        O  0.60612725  0.84650562  0.28325083    -0.52660
O103        O  0.59443917  0.94863064  0.22692886    -0.52650
O104        O  0.55117124  0.90458978  0.27379425    -0.51830
O105        O  0.36613340  0.19523201  0.54336156    -0.53030
C106        C  0.37212965  0.20755238  0.42253470     0.79600
O107        O  0.36582691  0.29207277  0.50003143    -0.54190
C108        C  0.37195116  0.20789788  0.57738063     0.79570
C109        C  0.44690020  0.24597348  0.49998489     0.81960
Cd110      Cd  0.38180026  0.23815087  0.49985207     1.37470
O111        O  0.36585373  0.19519140  0.45661071    -0.53030
O112        O  0.43459086  0.22018650  0.50046960    -0.51840
C113        C  0.33775429  0.28657746  0.49971504     0.81920
O114        O  0.42940229  0.26863061  0.49943023    -0.54210
O115        O  0.38227772  0.23429063  0.42371769    -0.52660
O116        O  0.38173748  0.23476562  0.57602697    -0.52650
O117        O  0.32997238  0.25907075  0.49941079    -0.51820
O118        O  0.61999755  0.19508827  0.54413801    -0.53030
C119        C  0.61424895  0.20758320  0.42330634     0.79600
O120        O  0.55669075  0.26852875  0.50111626    -0.54190
C121        C  0.61381307  0.20756568  0.57816030     0.79570
C122        C  0.64833357  0.28639749  0.50049257     0.81960
Cd123      Cd  0.60423938  0.23799670  0.50066544     1.37470
O124        O  0.61999830  0.19499443  0.45740074    -0.53030
O125        O  0.65608445  0.25888866  0.50102508    -0.51840
C126        C  0.53915106  0.24589941  0.50030876     0.81920
O127        O  0.62026761  0.29190862  0.50011840    -0.54210
O128        O  0.60443469  0.23443943  0.42450952    -0.52660
O129        O  0.60377852  0.23433781  0.57684673    -0.52650
O130        O  0.55141279  0.22009816  0.49965611    -0.51830
O131        O  0.18085080  0.63438859  0.45579243    -0.53030
C132        C  0.19349968  0.62859503  0.57652969     0.79600
O133        O  0.25409438  0.57082366  0.49849783    -0.54190
C134        C  0.19327971  0.62822564  0.42173527     0.79570
C135        C  0.27229607  0.66234784  0.49932515     0.81960
Cd136      Cd  0.22373718  0.61847375  0.49911614     1.37460
O137        O  0.18087674  0.63438606  0.54247643    -0.53030
O138        O  0.24484402  0.67024577  0.49879404    -0.51840
C139        C  0.23143569  0.55333330  0.49934614     0.81920
O140        O  0.27766756  0.63423952  0.49965287    -0.54210
O141        O  0.22029985  0.61867598  0.57524878    -0.52660
O142        O  0.22002640  0.61815625  0.42296530    -0.52650
O143        O  0.20568178  0.56566677  0.50009718    -0.51830
O144        O  0.18112153  0.37992190  0.54341167    -0.53030
C145        C  0.19352951  0.38581739  0.42253612     0.79600
O146        O  0.25422617  0.44357459  0.50014643    -0.54190
C147        C  0.19360170  0.38619240  0.57740567     0.79570
C148        C  0.27237590  0.35189387  0.49986679     0.81960
Cd149      Cd  0.22390162  0.39586977  0.49989918     1.37460
O150        O  0.18094781  0.38003306  0.45662036    -0.53030
O151        O  0.24490082  0.34405816  0.50031130    -0.51840
C152        C  0.23153491  0.46102123  0.49962916     0.81920
O153        O  0.27781909  0.37999368  0.49947577    -0.54210
O154        O  0.22035987  0.39567716  0.42375586    -0.52660
O155        O  0.22032038  0.39634153  0.57604822    -0.52650
O156        O  0.20579503  0.44863786  0.49922349    -0.51820
O157        O  0.62013176  0.81870739  0.54294830    -0.53030
C158        C  0.61409729  0.80601990  0.42229720     0.79600
O159        O  0.62042684  0.72177771  0.50022456    -0.54190
C160        C  0.61448872  0.80609604  0.57705937     0.79570
C161        C  0.53932620  0.76781649  0.50000861     0.81960
Cd162      Cd  0.60441742  0.77566410  0.49975291     1.37470
O163        O  0.62024421  0.81852622  0.45631520    -0.53030
O164        O  0.55162451  0.79360898  0.50044698    -0.51840
C165        C  0.64849047  0.72731567  0.49978255     0.81920
O166        O  0.55683181  0.74516619  0.49946855    -0.54210
O167        O  0.60404617  0.77924829  0.42360468    -0.52660
O168        O  0.60474426  0.77920757  0.57589454    -0.52650
O169        O  0.65624206  0.75482810  0.49928946    -0.51820
O170        O  0.36635068  0.81875414  0.45693437    -0.53030
C171        C  0.37229826  0.80631030  0.57768808     0.79600
O172        O  0.36591668  0.72191993  0.49983534    -0.54190
C173        C  0.37203793  0.80607712  0.42288570     0.79570
C174        C  0.44708245  0.76787642  0.50020887     0.81960
Cd175      Cd  0.38200261  0.77579818  0.50033309     1.37470
O176        O  0.36624728  0.81877707  0.54361093    -0.53030
O177        O  0.43482931  0.79368119  0.49954076    -0.51840
C178        C  0.33785943  0.72748030  0.50014189     0.81920
O179        O  0.42953690  0.74525017  0.50092935    -0.54210
O180        O  0.38224919  0.77950351  0.57649006    -0.52660
O181        O  0.38179892  0.77920415  0.42418086    -0.52650
O182        O  0.33014669  0.75499944  0.50064236    -0.51820
O183        O  0.80505242  0.37963664  0.45601682    -0.53030
C184        C  0.79268559  0.38572330  0.57693161     0.79600
O185        O  0.73194161  0.44328095  0.49912914    -0.54190
C186        C  0.79259211  0.38594172  0.42202249     0.79570
C187        C  0.71378851  0.35166630  0.49980921     0.81960
Cd188      Cd  0.76229551  0.39562891  0.49954408     1.37470
O189        O  0.80524704  0.37984160  0.54286661    -0.53030
O190        O  0.74125560  0.34381868  0.49931781    -0.51840
C191        C  0.75461945  0.46075521  0.49972814     0.81920
O192        O  0.70837217  0.37976753  0.50010912    -0.54210
O193        O  0.76587115  0.39560710  0.57567975    -0.52660
O194        O  0.76589176  0.39612370  0.42338269    -0.52650
O195        O  0.78036939  0.44840848  0.50025084    -0.51830
O196        O  0.80523564  0.63387828  0.45632796    -0.53030
C197        C  0.79282456  0.62802509  0.57722135     0.79600
O198        O  0.70850546  0.63400841  0.49967208    -0.54190
C199        C  0.79250162  0.62814063  0.42233270     0.79570
C200        C  0.75467761  0.55305326  0.49984400     0.81960
Cd201      Cd  0.76239541  0.61817755  0.49987924     1.37470
O202        O  0.80527460  0.63417274  0.54316579    -0.53030
O203        O  0.78043948  0.56539083  0.49934260    -0.51840
C204        C  0.71393758  0.66210942  0.49995885     0.81920
O205        O  0.73201620  0.57053535  0.50036089    -0.54210
O206        O  0.76609059  0.61791093  0.57598724    -0.52660
O207        O  0.76564834  0.61836080  0.42373360    -0.52650
O208        O  0.74140687  0.66997116  0.50025409    -0.51820
O209        O  0.37058005  0.13525545  0.82034018    -0.53030
C210        C  0.44709818  0.12318670  0.75637347     0.79600
O211        O  0.36540334  0.07037401  0.71742678    -0.54190
C212        C  0.34262699  0.12955690  0.81808904     0.79570
C213        C  0.37089861  0.15780956  0.68225786     0.81960
Cd214      Cd  0.38275921  0.11769759  0.75021095     1.37470
O215        O  0.43001723  0.13476501  0.78339521    -0.53030
O216        O  0.38009808  0.16778702  0.71657234    -0.51840
C217        C  0.37732096  0.05330396  0.74419772     0.81920
O218        O  0.36560125  0.12976879  0.67986426    -0.54210
O219        O  0.43460542  0.10950428  0.72671019    -0.52660
O220        O  0.33273293  0.11996339  0.78393184    -0.52650
O221        O  0.39133623  0.06583014  0.77354338    -0.51820
O222        O  0.36669994  0.88500647  0.67932414    -0.53030
C223        C  0.37776033  0.96154102  0.74391292     0.79600
O224        O  0.37139959  0.88018609  0.82022255    -0.54190
C225        C  0.37147833  0.85689121  0.68210530     0.79570
C226        C  0.44783392  0.89132226  0.75548995     0.81960
Cd227      Cd  0.38349349  0.89716647  0.74979207     1.37470
O228        O  0.36579556  0.94443645  0.71721678    -0.53030
O229        O  0.43532291  0.90520330  0.72601514    -0.51840
C230        C  0.34335787  0.88536434  0.81769426     0.81920
O231        O  0.43077555  0.87979166  0.78258646    -0.54210
O232        O  0.39204546  0.94906047  0.77304873    -0.52660
O233        O  0.38023751  0.84695635  0.71665600    -0.52650
O234        O  0.33341807  0.89444058  0.78329971    -0.51820
O235        O  0.55593754  0.13477019  0.78319703    -0.53030
C236        C  0.64324005  0.12857827  0.81860899     0.79600
O237        O  0.62078512  0.06976287  0.71766476    -0.54190
C238        C  0.53879405  0.12266697  0.75667082     0.79570
C239        C  0.61480350  0.15715589  0.68279477     0.81960
Cd240      Cd  0.60311593  0.11688519  0.75064603     1.37460
O241        O  0.61512384  0.13324476  0.82135430    -0.53030
O242        O  0.60588075  0.16707060  0.71727475    -0.51840
C243        C  0.60904603  0.05254160  0.74440660     0.81920
O244        O  0.61989998  0.12909031  0.68016783    -0.54210
O245        O  0.65325404  0.12009647  0.78397652    -0.52660
O246        O  0.55121145  0.10821214  0.72764335    -0.52650
O247        O  0.59490811  0.06489200  0.77377442    -0.51820
O248        O  0.62140614  0.88429481  0.67950622    -0.53030
C249        C  0.60951294  0.96078430  0.74404862     0.79600
O250        O  0.55654737  0.87895208  0.78219146    -0.54190
C251        C  0.61581827  0.85630165  0.68178648     0.79570
C252        C  0.64389466  0.88433230  0.81767682     0.81960
Cd253      Cd  0.60391938  0.89638800  0.74970055     1.37460
O254        O  0.62113704  0.94379011  0.71695144    -0.53030
O255        O  0.65393544  0.89351223  0.78338611    -0.51840
C256        C  0.53955165  0.89092256  0.75538166     0.81920
O257        O  0.61584999  0.87912798  0.82002234    -0.54210
O258        O  0.59572765  0.94817792  0.77353132    -0.52660
O259        O  0.60633500  0.84636672  0.71597767    -0.52650
O260        O  0.55214003  0.90501568  0.72615248    -0.51820
O261        O  0.05596277  0.37960068  0.71715711    -0.53030
C262        C  0.14330180  0.38541621  0.68204736     0.79600
O263        O  0.12052830  0.44476148  0.78251390    -0.54190
C264        C  0.03882259  0.39150753  0.74383981     0.79570
C265        C  0.11488323  0.35721602  0.81773780     0.81960
Cd266      Cd  0.10312712  0.39739749  0.74982388     1.37460
O267        O  0.11520236  0.38061552  0.67934714    -0.53030
O268        O  0.10585730  0.34728304  0.78331538    -0.51840
C269        C  0.10884265  0.46180845  0.75552394     0.81920
O270        O  0.12004618  0.38527905  0.82029710    -0.54210
O271        O  0.15328142  0.39419209  0.71656846    -0.52660
O272        O  0.05123810  0.40580190  0.77302584    -0.52650
O273        O  0.09487225  0.44925643  0.72615920    -0.51830
O274        O  0.93010179  0.37940482  0.71679919    -0.53030
C275        C  0.84276088  0.38460202  0.68179162     0.79600
O276        O  0.86564777  0.38432263  0.82012359    -0.54190
C277        C  0.94713123  0.39098321  0.74389338     0.79570
C278        C  0.87733677  0.46088819  0.75561857     0.81960
Cd279      Cd  0.88279616  0.39648108  0.74977931     1.37470
O280        O  0.87073337  0.37900567  0.67956933    -0.53030
O281        O  0.89147124  0.44832881  0.72641615    -0.51840
C282        C  0.87089383  0.35627721  0.81763264     0.81920
O283        O  0.86532548  0.44384607  0.78235420    -0.54210
O284        O  0.83280967  0.39410037  0.71596381    -0.52660
O285        O  0.93458712  0.40468069  0.77349558    -0.52650
O286        O  0.88004896  0.34635000  0.78327440    -0.51830
O287        O  0.05631645  0.63517846  0.71649764    -0.53030
C288        C  0.14357380  0.62994793  0.68145971     0.79600
O289        O  0.12071701  0.63005089  0.81981231    -0.54190
C290        C  0.03927875  0.62357005  0.74355580     0.79570
C291        C  0.10909369  0.55359449  0.75529526     0.81960
Cd292      Cd  0.10359268  0.61800672  0.74944988     1.37470
O293        O  0.11558462  0.63545175  0.67922259    -0.53030
O294        O  0.09489345  0.56613638  0.72613156    -0.51840
C295        C  0.11545223  0.65809562  0.81741034     0.81920
O296        O  0.12115000  0.57065460  0.78196799    -0.54210
O297        O  0.15356527  0.62053380  0.71565634    -0.52660
O298        O  0.05180711  0.60980579  0.77311741    -0.52650
O299        O  0.10631084  0.66808777  0.78307614    -0.51830
O300        O  0.93043994  0.63489304  0.71685665    -0.53030
C301        C  0.84317292  0.62897081  0.68179269     0.79600
O302        O  0.86595589  0.56976871  0.78246859    -0.54190
C303        C  0.94760658  0.62304679  0.74356082     0.79570
C304        C  0.87150855  0.65722860  0.81741022     0.81960
Cd305      Cd  0.88332815  0.61705572  0.74958274     1.37470
O306        O  0.87127640  0.63373082  0.67907164    -0.53030
O307        O  0.88054257  0.66717395  0.78299887    -0.51840
C308        C  0.87762977  0.55266413  0.75554685     0.81920
O309        O  0.86636898  0.62916401  0.81998002    -0.54210
O310        O  0.83318396  0.62025612  0.71633613    -0.52660
O311        O  0.93522735  0.60876979  0.77279088    -0.52650
O312        O  0.89158428  0.56515040  0.72611512    -0.51830
O313        O  0.30535423  0.88002128  0.95633097    -0.53030
C314        C  0.29266942  0.88590061  0.07714475     0.79600
O315        O  0.23197124  0.94345643  0.99913012    -0.54190
C316        C  0.29294417  0.88623607  0.92227298     0.79570
C317        C  0.21396160  0.85191335  0.99967241     0.81960
Cd318      Cd  0.26243813  0.89588382  0.99965517     1.37460
O319        O  0.30530291  0.88007647  0.04311264    -0.53030
O320        O  0.24143030  0.84406974  0.99925060    -0.51840
C321        C  0.25460103  0.96098798  0.99983988     0.81920
O322        O  0.20853533  0.88001080  0.00001713    -0.54210
O323        O  0.26585575  0.89578094  0.07581622    -0.52660
O324        O  0.26620200  0.89631676  0.92350337    -0.52650
O325        O  0.28038191  0.94870795  0.00047058    -0.51820
O326        O  0.30515435  0.13422413  0.04379309    -0.53030
C327        C  0.29255786  0.12837466  0.92292803     0.79600
O328        O  0.23185835  0.07075966  0.00092499    -0.54190
C329        C  0.29272514  0.12793543  0.07781338     0.79570
C330        C  0.21381223  0.16236551  0.00022281     0.81960
Cd331      Cd  0.26227240  0.11838973  0.00036301     1.37460
O332        O  0.30514873  0.13426916  0.95697338    -0.53030
O333        O  0.24128556  0.17020620  0.00073910    -0.51840
C334        C  0.25451368  0.05327442  0.00008947     0.81920
O335        O  0.20837094  0.13426697  0.99985893    -0.54210
O336        O  0.26575620  0.11844372  0.92422062    -0.52660
O337        O  0.26598191  0.11784735  0.07651480    -0.52650
O338        O  0.28027432  0.06560676  0.99936539    -0.51820
O339        O  0.86587031  0.31847484  0.04307304    -0.53030
C340        C  0.87197029  0.30596120  0.92231704     0.79600
O341        O  0.92945528  0.24512954  0.00002353    -0.54190
C342        C  0.87221916  0.30611545  0.07712355     0.79570
C343        C  0.83790929  0.22708663  0.00005012     0.81960
Cd344      Cd  0.88187366  0.27559186  0.99976506     1.37460
O345        O  0.86613877  0.31854718  0.95638089    -0.53030
O346        O  0.83008523  0.25457588  0.00041242    -0.51840
C347        C  0.94695667  0.26779452  0.99966601     0.81920
O348        O  0.86598669  0.22164677  0.99956046    -0.54210
O349        O  0.88178826  0.27910735  0.92357752    -0.52660
O350        O  0.88244781  0.27941534  0.07589510    -0.52650
O351        O  0.93465668  0.29358069  0.99934220    -0.51820
O352        O  0.12004241  0.31900765  0.95631972    -0.53030
C353        C  0.11411261  0.30618738  0.07702749     0.79600
O354        O  0.05675311  0.24534176  0.99877521    -0.54190
C355        C  0.11391704  0.30662334  0.92221178     0.79570
C356        C  0.14837342  0.22760631  0.99960309     0.81960
Cd357      Cd  0.10425883  0.27595142  0.99950523     1.37460
O358        O  0.11990718  0.31886413  0.04300785    -0.53030
O359        O  0.15611330  0.25512373  0.99919295    -0.51840
C360        C  0.03919194  0.26794354  0.99959791     0.81920
O361        O  0.12031050  0.22206394  0.99987552    -0.54210
O362        O  0.10431990  0.27932186  0.07567715    -0.52660
O363        O  0.10391445  0.27982862  0.92334573    -0.52650
O364        O  0.05142455  0.29376288  0.00038480    -0.51820
O365        O  0.86648697  0.69501637  0.95605626    -0.53030
C366        C  0.87194051  0.70766480  0.07678812     0.79600
O367        O  0.92958046  0.76858158  0.99889366    -0.54190
C368        C  0.87247106  0.70757807  0.92202159     0.79570
C369        C  0.83794212  0.78621531  0.99960168     0.81960
Cd370      Cd  0.88208922  0.73797770  0.99945463     1.37460
O371        O  0.86635858  0.69499133  0.04270150    -0.53030
O372        O  0.83024064  0.75869025  0.99900742    -0.51840
C373        C  0.94713901  0.74597970  0.99977191     0.81920
O374        O  0.86599360  0.79181403  0.00004577    -0.54210
O375        O  0.88169169  0.73454897  0.07557630    -0.52660
O376        O  0.88234447  0.73441605  0.92330492    -0.52650
O377        O  0.93490932  0.72015836  0.00053765    -0.51820
O378        O  0.12016781  0.69544949  0.95633013    -0.53030
C379        C  0.11398833  0.70769157  0.07720285     0.79600
O380        O  0.12044394  0.79218798  0.99954695    -0.54190
C381        C  0.11427716  0.70811046  0.92233024     0.79570
C382        C  0.03936104  0.74612747  0.99986049     0.81960
Cd383      Cd  0.10442142  0.73829115  0.99988504     1.37460
O384        O  0.12021444  0.69529719  0.04313639    -0.53030
O385        O  0.05164546  0.72033773  0.99920136    -0.51840
C386        C  0.14850728  0.78666542  0.99997447     0.81920
O387        O  0.05687125  0.76878323  0.00051276    -0.54210
O388        O  0.10395145  0.73446532  0.07600573    -0.52660
O389        O  0.10439392  0.73493612  0.92371742    -0.52650
O390        O  0.15625546  0.75915533  0.00043237    -0.51820
O391        O  0.68112548  0.87944043  0.95665327    -0.53030
C392        C  0.69347711  0.88547598  0.07759148     0.79600
O393        O  0.77782106  0.87940551  0.99973399    -0.54190
C394        C  0.69379313  0.88534260  0.92266568     0.79570
C395        C  0.73180042  0.96029507  0.00036509     0.81960
Cd396      Cd  0.72394474  0.89520858  0.00023242     1.37460
O397        O  0.68102369  0.87932677  0.04353730    -0.53030
O398        O  0.70601311  0.94801523  0.99967554    -0.51840
C399        C  0.77240564  0.85130467  0.00015930     0.81920
O400        O  0.75442511  0.94276828  0.00096587    -0.54210
O401        O  0.72024347  0.89550359  0.07635426    -0.52660
O402        O  0.72060341  0.89523827  0.92407730    -0.52650
O403        O  0.74494384  0.84342308  0.00069569    -0.51830
O404        O  0.68131491  0.13342109  0.04401898    -0.53030
C405        C  0.69364057  0.12741336  0.92319693     0.79600
O406        O  0.77806592  0.13358856  0.00073037    -0.54190
C407        C  0.69397336  0.12763597  0.07804891     0.79570
C408        C  0.73191468  0.05256992  0.00060056     0.81960
Cd409      Cd  0.72416298  0.11767496  0.00053886     1.37460
O410        O  0.68124457  0.13360910  0.95726791    -0.53030
O411        O  0.70615297  0.06488708  0.00124328    -0.51840
C412        C  0.77260745  0.16168133  0.00035199     0.81920
O413        O  0.75457429  0.07006574  0.99996647    -0.54210
O414        O  0.72036424  0.11728291  0.92440323    -0.52660
O415        O  0.72080624  0.11780428  0.07671697    -0.52650
O416        O  0.74512957  0.16949365  0.00005238    -0.51830
C417        C  0.73494395  0.02011085  0.00055221    -0.08490
C418        C  0.73490314  0.99274817  0.00047746    -0.10050
C419        C  0.81569632  0.80996760  0.99980110    -0.08490
C420        C  0.79629883  0.82921176  0.99999227    -0.10050
C421        C  0.97957198  0.74913727  0.99984977    -0.08500
C422        C  0.00692054  0.74918679  0.99987463    -0.10050
C423        C  0.79646001  0.18385010  0.00026479    -0.08490
C424        C  0.81577406  0.20320015  0.00017583    -0.10050
C425        C  0.97940270  0.26474595  0.99963896    -0.08490
C426        C  0.00675392  0.26479029  0.99961622    -0.10050
C427        C  0.17058388  0.20380042  0.99979985    -0.08490
C428        C  0.18994190  0.18450431  0.00001344    -0.10050
C429        C  0.17071248  0.81048379  0.99989819    -0.08490
C430        C  0.19007885  0.82977967  0.99978564    -0.10050
C431        C  0.25151221  0.99344523  0.99991415    -0.08490
C432        C  0.25148059  0.02081033  0.99999196    -0.10050
C433        C  0.86915603  0.69159200  0.88376284    -0.08490
C434        C  0.86867448  0.67663368  0.85266892    -0.10050
C435        C  0.00703846  0.62551611  0.74093745    -0.08490
C436        C  0.97982513  0.62534346  0.74094014    -0.10050
C437        C  0.11824484  0.67740782  0.85278282    -0.08490
C438        C  0.11769824  0.69225030  0.88398357    -0.10050
C439        C  0.87539241  0.49316330  0.75817721    -0.08490
C440        C  0.87549388  0.52040117  0.75814982    -0.10050
C441        C  0.86805887  0.33688407  0.85292814    -0.08490
C442        C  0.86857054  0.32193984  0.88404722    -0.10050
C443        C  0.11097467  0.49408036  0.75797853    -0.08490
C444        C  0.11105738  0.52131975  0.75789856    -0.10050
C445        C  0.97937832  0.38907339  0.74127055    -0.08490
C446        C  0.00659467  0.38924726  0.74125191    -0.10050
C447        C  0.11769634  0.33779051  0.85300377    -0.08490
C448        C  0.11721805  0.32275552  0.88404347    -0.10050
C449        C  0.66315525  0.88144094  0.85307318    -0.08490
C450        C  0.67795868  0.88193517  0.88430293    -0.10050
C451        C  0.61130591  0.02029662  0.74167582    -0.08490
C452        C  0.61146473  0.99306071  0.74156386    -0.10050
C453        C  0.66263956  0.13132637  0.85389220    -0.08490
C454        C  0.67760170  0.13078533  0.88498256    -0.10050
C455        C  0.50729540  0.88899396  0.75791616    -0.08490
C456        C  0.48007564  0.88912446  0.75795768    -0.10050
C457        C  0.32396916  0.88251148  0.85297285    -0.08490
C458        C  0.30899399  0.88295615  0.88405305    -0.10050
C459        C  0.47934412  0.12508321  0.75913656    -0.08490
C460        C  0.50656209  0.12490753  0.75923448    -0.10050
C461        C  0.37556336  0.99379934  0.74140728    -0.08490
C462        C  0.37541631  0.02103476  0.74150516    -0.10050
C463        C  0.30846717  0.13183034  0.88463149    -0.08490
C464        C  0.32332240  0.13237242  0.85345048    -0.10050
C465        C  0.80882334  0.63139764  0.61545403    -0.08490
C466        C  0.82376680  0.63186223  0.64655472    -0.10050
C467        C  0.80863383  0.38229853  0.61520651    -0.08490
C468        C  0.82348983  0.38177396  0.64639106    -0.10050
C469        C  0.75161824  0.49322215  0.49979064    -0.08490
C470        C  0.75164034  0.52058814  0.49982904    -0.10050
C471        C  0.36899298  0.82237565  0.61589380    -0.08490
C472        C  0.36855878  0.83740602  0.64692968    -0.10050
C473        C  0.61801998  0.82207540  0.61529153    -0.08490
C474        C  0.61861747  0.83698498  0.64642782    -0.10050
C475        C  0.67069335  0.70351198  0.49985591    -0.08490
C476        C  0.69005885  0.68422881  0.49992139    -0.10050
C477        C  0.50687799  0.76474562  0.50009962    -0.08490
C478        C  0.47952525  0.76476473  0.50016185    -0.10050
C479        C  0.16271225  0.38249618  0.64680984    -0.08490
C480        C  0.17764622  0.38291130  0.61569525    -0.10050
C481        C  0.17762897  0.63215195  0.61482926    -0.08490
C482        C  0.16281640  0.63275483  0.64604084    -0.10050
C483        C  0.29622037  0.68443472  0.49959860    -0.08490
C484        C  0.31562065  0.70369500  0.49987625    -0.10050
C485        C  0.23447005  0.52086518  0.49943505    -0.08490
C486        C  0.23450905  0.49349667  0.49952179    -0.10050
C487        C  0.61709207  0.19155903  0.61643088    -0.08490
C488        C  0.61757736  0.17659150  0.64753146    -0.10050
C489        C  0.67053682  0.31022620  0.50027720    -0.08490
C490        C  0.68989951  0.32953063  0.50005060    -0.10050
C491        C  0.36806635  0.17713432  0.64689860    -0.08490
C492        C  0.36856744  0.19199878  0.61571098    -0.10050
C493        C  0.31557879  0.31042237  0.49973464    -0.08490
C494        C  0.29624232  0.32974427  0.49979375    -0.10050
C495        C  0.47935181  0.24903062  0.50006417    -0.08490
C496        C  0.50670573  0.24900529  0.50016646    -0.10050
C497        C  0.61741268  0.82200634  0.38403603    -0.08490
C498        C  0.61786474  0.83698771  0.35295906    -0.10050
C499        C  0.66249564  0.88183297  0.14691885    -0.08490
C500        C  0.67744708  0.88220960  0.11582137    -0.10050
C501        C  0.61091082  0.02056854  0.25889777    -0.08490
C502        C  0.61081981  0.99333249  0.25879908    -0.10050
C503        C  0.61832035  0.17670434  0.35391254    -0.08490
C504        C  0.61774154  0.19161376  0.38505396    -0.10050
C505        C  0.67810092  0.13111954  0.11636795    -0.08490
C506        C  0.66322573  0.13172592  0.14752915    -0.10050
C507        C  0.47924554  0.88847613  0.24169582    -0.08490
C508        C  0.50646304  0.88857197  0.24167573    -0.10050
C509        C  0.36792597  0.83682111  0.35339218    -0.08490
C510        C  0.36852618  0.82196518  0.38457821    -0.10050
C511        C  0.32336360  0.88180033  0.14667824    -0.08490
C512        C  0.30854014  0.88240685  0.11546782    -0.10050
C513        C  0.50706491  0.12498901  0.24190715    -0.08490
C514        C  0.47984573  0.12489569  0.24185251    -0.10050
C515        C  0.37551625  0.02012817  0.25878353    -0.08490
C516        C  0.37541467  0.99289286  0.25874675    -0.10050
C517        C  0.36885140  0.19144843  0.38434892    -0.08490
C518        C  0.36843132  0.17642559  0.35330333    -0.10050
C519        C  0.32372496  0.13151311  0.14715499    -0.08490
C520        C  0.30875729  0.13113617  0.11606351    -0.10050
C521        C  0.82308768  0.63213696  0.35272483    -0.08490
C522        C  0.80830697  0.63160206  0.38396609    -0.10050
C523        C  0.86832913  0.69175817  0.11505201    -0.08490
C524        C  0.86766476  0.67687606  0.14620469    -0.10050
C525        C  0.97886207  0.62465550  0.25757449    -0.08490
C526        C  0.00608000  0.62458243  0.25761940    -0.10050
C527        C  0.17723521  0.63152829  0.38351848    -0.08490
C528        C  0.16223775  0.63193865  0.35245902    -0.10050
C529        C  0.11755274  0.67657142  0.14644713    -0.08490
C530        C  0.11719467  0.69158808  0.11539562    -0.10050
C531        C  0.87464948  0.49348045  0.24053652    -0.08490
C532        C  0.87451244  0.52071310  0.24054442    -0.10050
C533        C  0.80854792  0.38265464  0.38373081    -0.08490
C534        C  0.82347388  0.38221048  0.35260684    -0.10050
C535        C  0.86844616  0.33718137  0.14639204    -0.08490
C536        C  0.86891894  0.32217948  0.11533139    -0.10050
C537        C  0.11083760  0.52030412  0.24117571    -0.08490
C538        C  0.11095800  0.49306943  0.24123175    -0.10050
C539        C  0.97955225  0.38917616  0.25803185    -0.08490
C540        C  0.00677155  0.38905876  0.25806749    -0.10050
C541        C  0.17758233  0.38231514  0.38427387    -0.08490
C542        C  0.16271136  0.38173779  0.35310500    -0.10050
C543        C  0.11753778  0.32207230  0.11535545    -0.08490
C544        C  0.11808117  0.33694036  0.14653326    -0.10050
loop_ 
_geom_bond_atom_site_label_1 
_geom_bond_atom_site_label_2 
_geom_bond_distance 
_geom_bond_site_symmetry_2 
_ccdc_geom_bond_type 
O1            C4   1.265       .  A
O1           Cd6   2.467       .  S
C2           O11   1.263       .  A
C2            O7   1.263       .  A
C2          C542   1.434       .  S
O3            C9   1.263       .  A
O3           Cd6   2.461       .  S
C4           O12   1.263       .  A
C4          C540   1.431       .  S
C5           O10   1.265       .  A
C5            O8   1.263       .  A
C5          C538   1.431       .  S
Cd6          O13   2.469       .  S
Cd6          O12   2.442       .  S
Cd6          O11   2.468       .  S
Cd6           O7   2.461       .  S
Cd6          O10   2.467       .  S
Cd6           O8   2.442       .  S
C9           O13   1.263       .  A
C9          C544   1.434       .  S
O14          C17   1.264       .  A
O14         Cd19   2.467       .  S
C15          O24   1.263       .  A
C15          O20   1.263       .  A
C15         C534   1.434       .  S
O16          C22   1.264       .  A
O16         Cd19   2.467       .  S
C17          O25   1.263       .  A
C17         C539   1.431       .  S
C18          O23   1.263       .  A
C18          O21   1.263       .  A
C18         C535   1.434       .  S
Cd19         O26   2.442       .  S
Cd19         O25   2.443       .  S
Cd19         O24   2.470       .  S
Cd19         O20   2.461       .  S
Cd19         O23   2.461       .  S
Cd19         O21   2.469       .  S
C22          O26   1.263       .  A
C22         C531   1.430       .  S
O27          C30   1.263       .  A
O27         Cd32   2.461       .  S
C28          O37   1.263       .  A
C28          O33   1.264       .  A
C28         C526   1.431       .  S
O29          C35   1.263       .  A
O29         Cd32   2.461       .  S
C30          O38   1.263       .  A
C30         C528   1.434       .  S
C31          O36   1.264       .  A
C31          O34   1.263       .  A
C31         C537   1.431       .  S
Cd32         O39   2.468       .  S
Cd32         O38   2.468       .  S
Cd32         O37   2.443       .  S
Cd32         O33   2.467       .  S
Cd32         O36   2.467       .  S
Cd32         O34   2.442       .  S
C35          O39   1.263       .  A
C35         C529   1.434       .  S
O40          C43   1.265       .  A
O40         Cd45   2.467       .  S
C41          O50   1.263       .  A
C41          O46   1.263       .  A
C41         C524   1.434       .  S
O42          C48   1.263       .  A
O42         Cd45   2.460       .  S
C43          O51   1.263       .  A
C43         C532   1.430       .  S
C44          O49   1.264       .  A
C44          O47   1.263       .  A
C44         C525   1.431       .  S
Cd45         O52   2.469       .  S
Cd45         O51   2.441       .  S
Cd45         O50   2.467       .  S
Cd45         O46   2.460       .  S
Cd45         O49   2.466       .  S
Cd45         O47   2.443       .  S
C48          O52   1.263       .  A
C48         C521   1.434       .  S
O53          C56   1.264       .  A
O53         Cd58   2.467       .  S
C54          O63   1.263       .  A
C54          O59   1.263       .  A
C54         C518   1.434       .  S
O55          C61   1.265       .  A
O55         Cd58   2.467       .  S
C56          O64   1.263       .  A
C56         C515   1.431       .  S
C57          O62   1.263       .  A
C57          O60   1.263       .  A
C57         C519   1.434       .  S
Cd58         O65   2.443       .  S
Cd58         O64   2.443       .  S
Cd58         O63   2.469       .  S
Cd58         O59   2.461       .  S
Cd58         O62   2.461       .  S
Cd58         O60   2.469       .  S
C61          O65   1.263       .  A
C61         C514   1.431       .  S
O66          C69   1.265       .  A
O66         Cd71   2.467       .  S
C67          O76   1.263       .  A
C67          O72   1.263       .  A
C67         C511   1.434       .  S
O68          C74   1.263       .  A
O68         Cd71   2.460       .  S
C69          O77   1.263       .  A
C69         C507   1.430       .  S
C70          O75   1.265       .  A
C70          O73   1.263       .  A
C70         C516   1.431       .  S
Cd71         O78   2.469       .  S
Cd71         O77   2.442       .  S
Cd71         O76   2.469       .  S
Cd71         O72   2.461       .  S
Cd71         O75   2.467       .  S
Cd71         O73   2.442       .  S
C74          O78   1.263       .  A
C74         C509   1.434       .  S
O79          C82   1.263       .  A
O79         Cd84   2.461       .  S
C80          O89   1.263       .  A
C80          O85   1.265       .  A
C80         C513   1.431       .  S
O81          C87   1.265       .  A
O81         Cd84   2.467       .  S
C82          O90   1.263       .  A
C82         C506   1.434       .  S
C83          O88   1.263       .  A
C83          O86   1.263       .  A
C83         C503   1.434       .  S
Cd84         O91   2.442       .  S
Cd84         O90   2.468       .  S
Cd84         O89   2.442       .  S
Cd84         O85   2.467       .  S
Cd84         O88   2.461       .  S
Cd84         O86   2.469       .  S
C87          O91   1.263       .  A
C87         C501   1.431       .  S
O92          C95   1.264       .  A
O92         Cd97   2.467       .  S
C93         O102   1.263       .  A
C93          O98   1.263       .  A
C93         C498   1.434       .  S
O94         C100   1.264       .  A
O94         Cd97   2.467       .  S
C95         O103   1.263       .  A
C95         C502   1.431       .  S
C96         O101   1.263       .  A
C96          O99   1.263       .  A
C96         C499   1.434       .  S
Cd97        O104   2.442       .  S
Cd97        O103   2.443       .  S
Cd97        O102   2.468       .  S
Cd97         O98   2.460       .  S
Cd97        O101   2.461       .  S
Cd97         O99   2.468       .  S
C100        O104   1.263       .  A
C100        C508   1.431       .  S
O105        C108   1.263       .  A
O105       Cd110   2.462       .  S
C106        O115   1.264       .  A
C106        O111   1.263       .  A
C106        C517   1.435       .  S
O107        C113   1.264       .  A
O107       Cd110   2.485       .  S
C108        O116   1.264       .  A
C108        C492   1.435       .  S
C109        O114   1.265       .  A
C109        O112   1.262       .  A
C109        C495   1.441       .  S
Cd110       O117   2.471       .  S
Cd110       O116   2.473       .  S
Cd110       O115   2.473       .  S
Cd110       O111   2.462       .  S
Cd110       O114   2.498       .  S
Cd110       O112   2.465       .  S
C113        O117   1.263       .  A
C113        C493   1.439       .  S
O118        C121   1.263       .  A
O118       Cd123   2.462       .  S
C119        O128   1.264       .  A
C119        O124   1.263       .  A
C119        C504   1.435       .  S
O120        C126   1.265       .  A
O120       Cd123   2.498       .  S
C121        O129   1.264       .  A
C121        C487   1.435       .  S
C122        O127   1.264       .  A
C122        O125   1.263       .  A
C122        C489   1.439       .  S
Cd123       O130   2.465       .  S
Cd123       O129   2.474       .  S
Cd123       O128   2.473       .  S
Cd123       O124   2.462       .  S
Cd123       O127   2.485       .  S
Cd123       O125   2.470       .  S
C126        O130   1.262       .  A
C126        C496   1.441       .  S
O131        C134   1.263       .  A
O131       Cd136   2.462       .  S
C132        O141   1.264       .  A
C132        O137   1.263       .  A
C132        C481   1.434       .  S
O133        C139   1.265       .  A
O133       Cd136   2.497       .  S
C134        O142   1.264       .  A
C134        C527   1.435       .  S
C135        O140   1.264       .  A
C135        O138   1.263       .  A
C135        C483   1.439       .  S
Cd136       O143   2.465       .  S
Cd136       O142   2.473       .  S
Cd136       O141   2.472       .  S
Cd136       O137   2.462       .  S
Cd136       O140   2.483       .  S
Cd136       O138   2.470       .  S
C139        O143   1.262       .  A
C139        C485   1.441       .  S
O144        C147   1.263       .  A
O144       Cd149   2.462       .  S
C145        O154   1.264       .  A
C145        O150   1.263       .  A
C145        C541   1.435       .  S
O146        C152   1.265       .  A
O146       Cd149   2.497       .  S
C147        O155   1.264       .  A
C147        C480   1.435       .  S
C148        O153   1.264       .  A
C148        O151   1.263       .  A
C148        C494   1.439       .  S
Cd149       O156   2.465       .  S
Cd149       O155   2.473       .  S
Cd149       O154   2.473       .  S
Cd149       O150   2.462       .  S
Cd149       O153   2.485       .  S
Cd149       O151   2.470       .  S
C152        O156   1.262       .  A
C152        C486   1.441       .  S
O157        C160   1.263       .  A
O157       Cd162   2.461       .  S
C158        O167   1.264       .  A
C158        O163   1.263       .  A
C158        C497   1.434       .  S
O159        C165   1.264       .  A
O159       Cd162   2.484       .  S
C160        O168   1.264       .  A
C160        C473   1.435       .  S
C161        O166   1.265       .  A
C161        O164   1.262       .  A
C161        C477   1.441       .  S
Cd162       O169   2.469       .  S
Cd162       O168   2.473       .  S
Cd162       O167   2.473       .  S
Cd162       O163   2.461       .  S
Cd162       O166   2.498       .  S
Cd162       O164   2.465       .  S
C165        O169   1.263       .  A
C165        C475   1.439       .  S
O170        C173   1.263       .  A
O170       Cd175   2.461       .  S
C171        O180   1.264       .  A
C171        O176   1.263       .  A
C171        C471   1.435       .  S
O172        C178   1.264       .  A
O172       Cd175   2.484       .  S
C173        O181   1.264       .  A
C173        C510   1.435       .  S
C174        O179   1.265       .  A
C174        O177   1.262       .  A
C174        C478   1.441       .  S
Cd175       O182   2.469       .  S
Cd175       O181   2.473       .  S
Cd175       O180   2.474       .  S
Cd175       O176   2.461       .  S
Cd175       O179   2.498       .  S
Cd175       O177   2.465       .  S
C178        O182   1.263       .  A
C178        C484   1.439       .  S
O183        C186   1.263       .  A
O183       Cd188   2.462       .  S
C184        O193   1.264       .  A
C184        O189   1.263       .  A
C184        C467   1.435       .  S
O185        C191   1.265       .  A
O185       Cd188   2.497       .  S
C186        O194   1.264       .  A
C186        C533   1.435       .  S
C187        O192   1.264       .  A
C187        O190   1.263       .  A
C187        C490   1.439       .  S
Cd188       O195   2.464       .  S
Cd188       O194   2.474       .  S
Cd188       O193   2.473       .  S
Cd188       O189   2.462       .  S
Cd188       O192   2.484       .  S
Cd188       O190   2.470       .  S
C191        O195   1.262       .  A
C191        C469   1.440       .  S
O196        C199   1.263       .  A
O196       Cd201   2.461       .  S
C197        O206   1.264       .  A
C197        O202   1.263       .  A
C197        C465   1.434       .  S
O198        C204   1.264       .  A
O198       Cd201   2.483       .  S
C199        O207   1.264       .  A
C199        C522   1.434       .  S
C200        O205   1.265       .  A
C200        O203   1.262       .  A
C200        C470   1.440       .  S
Cd201       O208   2.469       .  S
Cd201       O207   2.472       .  S
Cd201       O206   2.472       .  S
Cd201       O202   2.461       .  S
Cd201       O205   2.496       .  S
Cd201       O203   2.465       .  S
C204        O208   1.263       .  A
C204        C476   1.439       .  S
O209        C212   1.263       .  A
O209       Cd214   2.461       .  S
C210        O219   1.263       .  A
C210        O215   1.265       .  A
C210        C459   1.431       .  S
O211        C217   1.265       .  A
O211       Cd214   2.467       .  S
C212        O220   1.263       .  A
C212        C464   1.434       .  S
C213        O218   1.263       .  A
C213        O216   1.263       .  A
C213        C491   1.434       .  S
Cd214       O221   2.442       .  S
Cd214       O220   2.469       .  S
Cd214       O219   2.442       .  S
Cd214       O215   2.467       .  S
Cd214       O218   2.461       .  S
Cd214       O216   2.469       .  S
C217        O221   1.263       .  A
C217        C462   1.431       .  S
O222        C225   1.263       .  A
O222       Cd227   2.461       .  S
C223        O232   1.263       .  A
C223        O228   1.265       .  A
C223        C461   1.431       .  S
O224        C230   1.263       .  A
O224       Cd227   2.461       .  S
C225        O233   1.263       .  A
C225        C472   1.434       .  S
C226        O231   1.265       .  A
C226        O229   1.263       .  A
C226        C456   1.431       .  S
Cd227       O234   2.468       .  S
Cd227       O233   2.469       .  S
Cd227       O232   2.443       .  S
Cd227       O228   2.467       .  S
Cd227       O231   2.467       .  S
Cd227       O229   2.443       .  S
C230        O234   1.263       .  A
C230        C457   1.434       .  S
O235        C238   1.264       .  A
O235       Cd240   2.467       .  S
C236        O245   1.263       .  A
C236        O241   1.263       .  A
C236        C453   1.434       .  S
O237        C243   1.264       .  A
O237       Cd240   2.467       .  S
C238        O246   1.263       .  A
C238        C460   1.431       .  S
C239        O244   1.263       .  A
C239        O242   1.263       .  A
C239        C488   1.435       .  S
Cd240       O247   2.443       .  S
Cd240       O246   2.442       .  S
Cd240       O245   2.469       .  S
Cd240       O241   2.461       .  S
Cd240       O244   2.461       .  S
Cd240       O242   2.470       .  S
C243        O247   1.263       .  A
C243        C451   1.431       .  S
O248        C251   1.263       .  A
O248       Cd253   2.461       .  S
C249        O258   1.263       .  A
C249        O254   1.265       .  A
C249        C452   1.431       .  S
O250        C256   1.265       .  A
O250       Cd253   2.467       .  S
C251        O259   1.263       .  A
C251        C474   1.434       .  S
C252        O257   1.263       .  A
C252        O255   1.263       .  A
C252        C449   1.434       .  S
Cd253       O260   2.443       .  S
Cd253       O259   2.468       .  S
Cd253       O258   2.442       .  S
Cd253       O254   2.468       .  S
Cd253       O257   2.460       .  S
Cd253       O255   2.469       .  S
C256        O260   1.263       .  A
C256        C455   1.431       .  S
O261        C264   1.264       .  A
O261       Cd266   2.467       .  S
C262        O271   1.264       .  A
C262        O267   1.263       .  A
C262        C479   1.434       .  S
O263        C269   1.265       .  A
O263       Cd266   2.468       .  S
C264        O272   1.263       .  A
C264        C446   1.430       .  S
C265        O270   1.263       .  A
C265        O268   1.263       .  A
C265        C447   1.435       .  S
Cd266       O273   2.443       .  S
Cd266       O272   2.442       .  S
Cd266       O271   2.469       .  S
Cd266       O267   2.460       .  S
Cd266       O270   2.462       .  S
Cd266       O268   2.468       .  S
C269        O273   1.263       .  A
C269        C443   1.431       .  S
O274        C277   1.265       .  A
O274       Cd279   2.467       .  S
C275        O284   1.263       .  A
C275        O280   1.263       .  A
C275        C468   1.434       .  S
O276        C282   1.263       .  A
O276       Cd279   2.462       .  S
C277        O285   1.263       .  A
C277        C445   1.430       .  S
C278        O283   1.265       .  A
C278        O281   1.263       .  A
C278        C439   1.431       .  S
Cd279       O286   2.469       .  S
Cd279       O285   2.442       .  S
Cd279       O284   2.469       .  S
Cd279       O280   2.461       .  S
Cd279       O283   2.468       .  S
Cd279       O281   2.442       .  S
C282        O286   1.263       .  A
C282        C441   1.435       .  S
O287        C290   1.265       .  A
O287       Cd292   2.466       .  S
C288        O297   1.263       .  A
C288        O293   1.263       .  A
C288        C482   1.434       .  S
O289        C295   1.263       .  A
O289       Cd292   2.461       .  S
C290        O298   1.263       .  A
C290        C435   1.430       .  S
C291        O296   1.265       .  A
C291        O294   1.263       .  A
C291        C444   1.431       .  S
Cd292       O299   2.469       .  S
Cd292       O298   2.441       .  S
Cd292       O297   2.468       .  S
Cd292       O293   2.461       .  S
Cd292       O296   2.468       .  S
Cd292       O294   2.443       .  S
C295        O299   1.263       .  A
C295        C437   1.434       .  S
O300        C303   1.264       .  A
O300       Cd305   2.466       .  S
C301        O310   1.264       .  A
C301        O306   1.263       .  A
C301        C466   1.434       .  S
O302        C308   1.264       .  A
O302       Cd305   2.467       .  S
C303        O311   1.263       .  A
C303        C436   1.430       .  S
C304        O309   1.263       .  A
C304        O307   1.263       .  A
C304        C434   1.434       .  S
Cd305       O312   2.443       .  S
Cd305       O311   2.442       .  S
Cd305       O310   2.469       .  S
Cd305       O306   2.459       .  S
Cd305       O309   2.461       .  S
Cd305       O307   2.468       .  S
C308        O312   1.263       .  A
C308        C440   1.431       .  S
O313        C316   1.263       .  A
O313       Cd318   2.462       .  S
C314        O323   1.264       .  A
C314        O319   1.263       .  A
C314        C512   1.435       .  S
O315        C321   1.265       .  A
O315       Cd318   2.496       .  S
C316        O324   1.264       .  A
C316        C458   1.435       .  S
C317        O322   1.264   1_556  A
C317        O320   1.263       .  A
C317        C430   1.439       .  S
Cd318       O325   2.465   1_556  S
Cd318       O324   2.474       .  S
Cd318       O323   2.473   1_556  S
Cd318       O319   2.462   1_556  S
Cd318       O322   2.483   1_556  S
Cd318       O320   2.470       .  S
C321        O325   1.262   1_556  A
C321        C431   1.440       .  S
O326        C329   1.263       .  A
O326       Cd331   2.462       .  S
C327        O336   1.264       .  A
C327        O332   1.263       .  A
C327        C463   1.435       .  S
O328        C334   1.265       .  A
O328       Cd331   2.497       .  S
C329        O337   1.264       .  A
C329        C520   1.435       .  S
C330        O335   1.264   1_554  A
C330        O333   1.263       .  A
C330        C428   1.439       .  S
Cd331       O338   2.464   1_554  S
Cd331       O337   2.474       .  S
Cd331       O336   2.473   1_554  S
Cd331       O332   2.462   1_554  S
Cd331       O335   2.484   1_554  S
Cd331       O333   2.470       .  S
C334        O338   1.262   1_554  A
C334        C432   1.440   1_554  S
O339        C342   1.263       .  A
O339       Cd344   2.462   1_554  S
C340        O349   1.264       .  A
C340        O345   1.263       .  A
C340        C442   1.435       .  S
O341        C347   1.265   1_554  A
O341       Cd344   2.497   1_554  S
C342        O350   1.264       .  A
C342        C536   1.435       .  S
C343        O348   1.264   1_554  A
C343        O346   1.263       .  A
C343        C424   1.439       .  S
Cd344       O351   2.465       .  S
Cd344       O350   2.473   1_556  S
Cd344       O349   2.474       .  S
Cd344       O345   2.462       .  S
Cd344       O348   2.484       .  S
Cd344       O346   2.470   1_556  S
C347        O351   1.262       .  A
C347        C425   1.441       .  S
O352        C355   1.263       .  A
O352       Cd357   2.462       .  S
C353        O362   1.264       .  A
C353        O358   1.263       .  A
C353        C543   1.435       .  S
O354        C360   1.265       .  A
O354       Cd357   2.497       .  S
C355        O363   1.264       .  A
C355        C448   1.435       .  S
C356        O361   1.264       .  A
C356        O359   1.263       .  A
C356        C427   1.439       .  S
Cd357       O364   2.465   1_556  S
Cd357       O363   2.474       .  S
Cd357       O362   2.473   1_556  S
Cd357       O358   2.462   1_556  S
Cd357       O361   2.484       .  S
Cd357       O359   2.470       .  S
C360        O364   1.262   1_556  A
C360        C426   1.441       .  S
O365        C368   1.263       .  A
O365       Cd370   2.461       .  S
C366        O375   1.264       .  A
C366        O371   1.263       .  A
C366        C523   1.434       .  S
O367        C373   1.265       .  A
O367       Cd370   2.497       .  S
C368        O376   1.264       .  A
C368        C433   1.434       .  S
C369        O374   1.264   1_556  A
C369        O372   1.263       .  A
C369        C419   1.438       .  S
Cd370       O377   2.464   1_556  S
Cd370       O376   2.473       .  S
Cd370       O375   2.472   1_556  S
Cd370       O371   2.460   1_556  S
Cd370       O374   2.483   1_556  S
Cd370       O372   2.468       .  S
C373        O377   1.262   1_556  A
C373        C421   1.440       .  S
O378        C381   1.263       .  A
O378       Cd383   2.462       .  S
C379        O388   1.264       .  A
C379        O384   1.263       .  A
C379        C530   1.435       .  S
O380        C386   1.264       .  A
O380       Cd383   2.484       .  S
C381        O389   1.264       .  A
C381        C438   1.435       .  S
C382        O387   1.265   1_556  A
C382        O385   1.262       .  A
C382        C422   1.440       .  S
Cd383       O390   2.469   1_556  S
Cd383       O389   2.473       .  S
Cd383       O388   2.473   1_556  S
Cd383       O384   2.462   1_556  S
Cd383       O387   2.497   1_556  S
Cd383       O385   2.464       .  S
C386        O390   1.263   1_556  A
C386        C429   1.439       .  S
O391        C394   1.263       .  A
O391       Cd396   2.462   1_556  S
C392        O401   1.264       .  A
C392        O397   1.263       .  A
C392        C500   1.435       .  S
O393        C399   1.264   1_556  A
O393       Cd396   2.482   1_556  S
C394        O402   1.264       .  A
C394        C450   1.435       .  S
C395        O400   1.265       .  A
C395        O398   1.262   1_554  A
C395        C418   1.440       .  S
Cd396       O403   2.469       .  S
Cd396       O402   2.473   1_554  S
Cd396       O401   2.473       .  S
Cd396       O397   2.462       .  S
Cd396       O400   2.496       .  S
Cd396       O398   2.464   1_554  S
C399        O403   1.263       .  A
C399        C420   1.438   1_554  S
O404        C407   1.263       .  A
O404       Cd409   2.461       .  S
C405        O414   1.264       .  A
C405        O410   1.263       .  A
C405        C454   1.435       .  S
O406        C412   1.264       .  A
O406       Cd409   2.484       .  S
C407        O415   1.264       .  A
C407        C505   1.435       .  S
C408        O413   1.265   1_554  A
C408        O411   1.262       .  A
C408        C417   1.440       .  S
Cd409       O416   2.469       .  S
Cd409       O415   2.473       .  S
Cd409       O414   2.473   1_554  S
Cd409       O410   2.462   1_554  S
Cd409       O413   2.496   1_554  S
Cd409       O411   2.464       .  S
C412        O416   1.263       .  A
C412        C423   1.439       .  S
C417        C418   1.209   1_545  T
C419        C420   1.208       .  T
C421        C422   1.209   1_655  T
C423        C424   1.208       .  T
C425        C426   1.209   1_655  T
C427        C428   1.208   1_556  T
C429        C430   1.208       .  T
C431        C432   1.209   1_565  T
C433        C434   1.205       .  T
C435        C436   1.203   1_455  T
C437        C438   1.205       .  T
C439        C440   1.203       .  T
C441        C442   1.206       .  T
C443        C444   1.203       .  T
C445        C446   1.203   1_655  T
C447        C448   1.206       .  T
C449        C450   1.205       .  T
C451        C452   1.203   1_545  T
C453        C454   1.205       .  T
C455        C456   1.203       .  T
C457        C458   1.206       .  T
C459        C460   1.203       .  T
C461        C462   1.203   1_565  T
C463        C464   1.205       .  T
C465        C466   1.205       .  T
C467        C468   1.205       .  T
C469        C470   1.209       .  T
C471        C472   1.205       .  T
C473        C474   1.205       .  T
C475        C476   1.208       .  T
C477        C478   1.209       .  T
C479        C480   1.205       .  T
C481        C482   1.205       .  T
C483        C484   1.208       .  T
C485        C486   1.209       .  T
C487        C488   1.206       .  T
C489        C490   1.208       .  T
C491        C492   1.206       .  T
C493        C494   1.208       .  T
C495        C496   1.209       .  T
C497        C498   1.205       .  T
C499        C500   1.205       .  T
C501        C502   1.203   1_545  T
C503        C504   1.205       .  T
C505        C506   1.205       .  T
C507        C508   1.203       .  T
C509        C510   1.205       .  T
C511        C512   1.205       .  T
C513        C514   1.203       .  T
C515        C516   1.203   1_545  T
C517        C518   1.205       .  T
C519        C520   1.206       .  T
C521        C522   1.205       .  T
C523        C524   1.205       .  T
C525        C526   1.203   1_655  T
C527        C528   1.205       .  T
C529        C530   1.205       .  T
C531        C532   1.203       .  T
C533        C534   1.206       .  T
C535        C536   1.205       .  T
C537        C538   1.203       .  T
C539        C540   1.203   1_655  T
C541        C542   1.205       .  T
C543        C544   1.205       .  T
