geometry optimzed in LAMMPS
_audit_creation_date              2020-11-30 
_audit_creation_method            'lammps2cif' 
_symmetry_space_group_name_H-M    'P1' 
_symmetry_Int_Tables_number       1 
_symmetry_cell_setting            triclinic 
loop_ 
_symmetry_equiv_pos_as_xyz 
  x,y,z 
_cell_length_a                    66.51422607 
_cell_length_b                    65.16371431750936 
_cell_length_c                    37.826779994631245 
_cell_angle_alpha                 89.93041778692576 
_cell_angle_beta                  90.04554777130473 
_cell_angle_gamma                 122.02185234402783 
loop_ 
_atom_site_label 
_atom_site_type_symbol 
_atom_site_fract_x 
_atom_site_fract_y 
_atom_site_fract_z 
_atom_site_charge 
Zr1        Zr  0.59898028  0.42201942  0.51508267     2.17500
O2          O  0.63629862  0.44895521  0.54547038    -0.51400
O3          O  0.59290165  0.38257077  0.53211053    -0.74600
O4          O  0.59112723  0.41745542  0.57847733    -0.81400
O5          O  0.62329590  0.41939767  0.42573888    -0.83200
O6          O  0.56156916  0.42462145  0.58802518    -0.78800
O7          O  0.63211577  0.42361321  0.48437639    -0.90400
O8          O  0.55502988  0.35418233  0.51738186    -0.76400
O9          O  0.55814806  0.40152906  0.52989377    -0.85900
O10         O  0.57801227  0.39346970  0.46933620    -0.85600
O11         O  0.58916226  0.45295952  0.51843282    -0.72300
O12         O  0.60702286  0.44644384  0.46276308    -0.84500
Zr13       Zr  0.53304533  0.42455128  0.43597606     2.26400
Zr14       Zr  0.54797955  0.43138590  0.53324043     2.06300
Zr15       Zr  0.58597406  0.41729196  0.41780675     2.10000
Zr16       Zr  0.53715041  0.37277720  0.48515732     1.78800
O17         O  0.61456464  0.44620881  0.37545612    -0.93300
O18         O  0.51087958  0.35279671  0.53536387    -0.41100
O19         O  0.54449032  0.39524806  0.43174279    -0.77700
O20         O  0.52527080  0.40165479  0.48920785    -0.96400
O21         O  0.55414706  0.45393551  0.48059237    -0.89700
O22         O  0.57403869  0.44583705  0.41985636    -0.92500
C23         C  0.57518990  0.36044042  0.53086452     1.01200
C24         C  0.63683909  0.42207171  0.45184558     1.14200
C25         C  0.57619532  0.41878983  0.59830087     1.04900
O26         O  0.51437266  0.40640572  0.57196288    -0.94700
O27         O  0.51601829  0.43812001  0.52546478    -0.90400
O28         O  0.50654503  0.43461485  0.46704755    -0.83600
C29         C  0.50404021  0.43893501  0.49959199     1.11600
O30         O  0.63246650  0.50479746  0.49086552    -0.96700
Zr31       Zr  0.59458789  0.47521807  0.46421784     1.88900
O32         O  0.54100033  0.46067347  0.40615974    -0.73300
O33         O  0.56201943  0.46848758  0.56682885    -0.52600
O34         O  0.59057494  0.50406987  0.49956060    -0.97200
O35         O  0.62618834  0.49866751  0.42164502    -0.54500
O36         O  0.57824087  0.49113161  0.42047780    -0.73800
C37         C  0.55851843  0.48255825  0.40338160     0.98500
O38         O  0.49262254  0.39622561  0.41617633    -0.62600
O39         O  0.58130999  0.38232968  0.38652829    -0.57400
O40         O  0.53304601  0.41625845  0.37303589    -0.94100
O41         O  0.56437629  0.41164830  0.36466647    -0.92600
O42         O  0.53211612  0.34101817  0.44543840    -0.92900
O43         O  0.49637726  0.34518864  0.46632923    -0.91700
C44         C  0.54654853  0.41229731  0.35367620     1.17400
H45         H  0.58341550  0.38247689  0.46591231     0.33300
H46         H  0.50860271  0.39346548  0.49488770     0.44200
H47         H  0.57674274  0.45344149  0.39696167     0.37700
H48         H  0.59823735  0.46418097  0.53719014     0.34200
H49         H  0.52156089  0.35606614  0.55569106     0.26000
H50         H  0.55421845  0.47627260  0.55575114     0.31900
H51         H  0.57703049  0.50423356  0.48900671     0.37800
H52         H  0.53882196  0.34933575  0.42263659     0.32300
H53         H  0.59252554  0.38925636  0.36644448     0.31100
H54         H  0.61639346  0.43617524  0.35767541     0.32800
H55         H  0.62836280  0.51492677  0.42172319     0.31800
H56         H  0.49297532  0.35494573  0.45017413     0.35800
H57         H  0.48288374  0.39098428  0.43795726     0.28500
H58         H  0.63621082  0.43996300  0.56664405     0.32700
H59         H  0.64064113  0.49591717  0.49432953     0.35600
H60         H  0.58821643  0.37553441  0.40235150     0.28200
H61         H  0.48795313  0.40635601  0.40345529     0.41100
H62         H  0.51694795  0.41668562  0.59282671     0.31100
H63         H  0.50374686  0.36251463  0.54029197     0.38800
H64         H  0.61903072  0.49179592  0.39832218     0.30600
H65         H  0.55428725  0.46298890  0.59021982     0.30700
H66         H  0.63468439  0.46219047  0.55484513     0.30900
Zr67       Zr  0.59680478  0.42065341  0.01557117     2.17500
O68         O  0.63457913  0.44922599  0.04351974    -0.51400
O69         O  0.58985821  0.38166238  0.03712678    -0.74600
O70         O  0.58984021  0.42087054  0.07881645    -0.81400
O71         O  0.62116539  0.41383567  0.93034934    -0.83200
O72         O  0.56195068  0.43084884  0.08385670    -0.78800
O73         O  0.62918347  0.41886115  0.98914202    -0.90400
O74         O  0.55210967  0.35280998  0.02275519    -0.76400
O75         O  0.55628397  0.40285882  0.03078946    -0.85900
O76         O  0.57459438  0.38938952  0.97362251    -0.85600
O77         O  0.58917139  0.45311871  0.01132732    -0.72300
O78         O  0.60538096  0.44126859  0.95943326    -0.84500
Zr79       Zr  0.53182537  0.42107401  0.93084693     2.26400
Zr80       Zr  0.54837858  0.43440494  0.02693220     2.06300
Zr81       Zr  0.58281977  0.40941228  0.91862533     2.10000
Zr82       Zr  0.53403840  0.37130137  0.98996799     1.78800
O83         O  0.61000923  0.42813621  0.86905529    -0.93300
O84         O  0.50941068  0.35541411  0.04281325    -0.41100
O85         O  0.54152610  0.39023988  0.93324680    -0.77700
O86         O  0.52399023  0.40175420  0.98748253    -0.96400
O87         O  0.55489059  0.45336606  0.97074556    -0.89700
O88         O  0.57244996  0.43930632  0.91361422    -0.92500
C89         C  0.57230843  0.35941722  0.03660870     1.01200
C90         C  0.63426522  0.41652923  0.95721961     1.14200
C91         C  0.57573321  0.42464503  0.09680572     1.04900
O92         O  0.51501221  0.41445303  0.06774103    -0.94700
O93         O  0.51766943  0.44255592  0.01643988    -0.90400
O94         O  0.50526532  0.43241114  0.95950356    -0.83600
C95         C  0.50412199  0.43999748  0.99063690     1.11600
O96         O  0.63474829  0.50286742  0.97175827    -0.96700
Zr97       Zr  0.59503080  0.47138888  0.95329734     1.88900
O98         O  0.54068995  0.45633483  0.89722399    -0.73300
O99         O  0.56512749  0.47423382  0.05356416    -0.52600
O100        O  0.59891679  0.50691284  0.98148547    -0.97200
O101        O  0.62372050  0.48403185  0.90530715    -0.54500
O102        O  0.57845249  0.48656414  0.90902812    -0.73800
C103        C  0.55843294  0.47795279  0.89286409     0.98500
O104        O  0.49162455  0.39477355  0.90855735    -0.62600
O105        O  0.57419602  0.36962799  0.90057787    -0.57400
O106        O  0.53076713  0.40794385  0.87004385    -0.94100
O107        O  0.56168525  0.40239771  0.86452699    -0.92600
O108        O  0.52438693  0.33590094  0.95491186    -0.92900
O109        O  0.49251418  0.34500848  0.97364364    -0.91700
C110        C  0.54399002  0.40278662  0.85219558     1.17400
H111        H  0.57948703  0.37786684  0.97228692     0.33300
H112        H  0.50748702  0.39462464  0.99359197     0.44200
H113        H  0.57492333  0.44534739  0.88969077     0.37700
H114        H  0.59882114  0.46551325  0.02845902     0.34200
H115        H  0.51495988  0.34600126  0.05543951     0.26000
H116        H  0.56154200  0.48340142  0.03649754     0.31900
H117        H  0.58464237  0.50692785  0.97409300     0.37800
H118        H  0.53985404  0.33916320  0.94626839     0.32300
H119        H  0.57852616  0.37144097  0.87523476     0.31100
H120        H  0.61295076  0.41560206  0.86047810     0.32800
H121        H  0.61433855  0.47984030  0.88323907     0.31800
H122        H  0.49042799  0.35315650  0.95312151     0.35800
H123        H  0.48203340  0.38609715  0.92964186     0.28500
H124        H  0.63627267  0.44002013  0.06289334     0.32700
H125        H  0.63599751  0.49887866  0.99661217     0.35600
H126        H  0.58634322  0.36766322  0.91246102     0.28200
H127        H  0.48630462  0.40582352  0.90168339     0.41100
H128        H  0.51686448  0.42746435  0.08352074     0.31100
H129        H  0.51443385  0.36969126  0.05803237     0.38800
H130        H  0.62926124  0.47262134  0.90617015     0.30600
H131        H  0.55474885  0.47151441  0.07406718     0.30700
H132        H  0.63195198  0.46109153  0.05557166     0.30900
Zr133      Zr  0.39807131  0.56733627  0.26820739     2.17500
O134        O  0.36131085  0.53911269  0.29882085    -0.51400
O135        O  0.40336610  0.60588551  0.28680979    -0.74600
O136        O  0.40859236  0.57242620  0.33105027    -0.81400
O137        O  0.37341089  0.57322467  0.18075880    -0.83200
O138        O  0.43598461  0.56187824  0.33802415    -0.78800
O139        O  0.36652603  0.57041862  0.24000214    -0.90400
O140        O  0.44037783  0.63503702  0.26934862    -0.76400
O141        O  0.43924751  0.58802187  0.28115417    -0.85900
O142        O  0.41806229  0.59631456  0.22268557    -0.85600
O143        O  0.40804884  0.53649020  0.26837803    -0.72300
O144        O  0.38916629  0.54395501  0.21457719    -0.84500
Zr145      Zr  0.46272608  0.56622216  0.18382973     2.26400
Zr146      Zr  0.44952834  0.55813850  0.28127854     2.06300
Zr147      Zr  0.40966428  0.57379705  0.16995520     2.10000
Zr148      Zr  0.45906687  0.61742223  0.23654381     1.78800
O149        O  0.37918870  0.54837043  0.12700626    -0.93300
O150        O  0.48628521  0.63853725  0.28540225    -0.41100
O151        O  0.45132678  0.59565336  0.18234891    -0.77700
O152        O  0.47130346  0.58867152  0.23775479    -0.96400
O153        O  0.44227189  0.53608023  0.22786236    -0.89700
O154        O  0.42147667  0.54504987  0.16904725    -0.92500
C155        C  0.42041522  0.62816223  0.28425826     1.01200
C156        C  0.36142789  0.57252155  0.20783138     1.14200
C157        C  0.42308843  0.56952213  0.34972387     1.04900
O158        O  0.48321470  0.58270564  0.32011189    -0.94700
O159        O  0.48268339  0.55380162  0.27083372    -0.90400
O160        O  0.49129662  0.55798369  0.21211359    -0.83600
C161        C  0.49477414  0.55409100  0.24437489     1.11600
O162        O  0.36396715  0.48443736  0.23938434    -0.96700
Zr163      Zr  0.40148175  0.51510709  0.21297765     1.88900
O164        O  0.45463453  0.53000556  0.15374078    -0.73300
O165        O  0.43836353  0.52052997  0.31152885    -0.52600
O166        O  0.40381493  0.48435196  0.24607374    -0.97200
O167        O  0.36883507  0.49428929  0.17112318    -0.54500
O168        O  0.41716882  0.49958715  0.16747362    -0.73800
C169        C  0.43693154  0.50825098  0.15044593     0.98500
O170        O  0.50259285  0.59396695  0.16124798    -0.62600
O171        O  0.41721528  0.61165601  0.14450938    -0.57400
O172        O  0.46177558  0.57602752  0.12192794    -0.94100
O173        O  0.42963261  0.57950066  0.11499787    -0.92600
O174        O  0.46131511  0.64821082  0.19724770    -0.92900
O175        O  0.49903834  0.64604864  0.21547439    -0.91700
C176        C  0.44772745  0.57962001  0.10334165     1.17400
H177        H  0.41244793  0.60719719  0.22030925     0.33300
H178        H  0.48806436  0.59696867  0.24281715     0.44200
H179        H  0.41846254  0.53773645  0.14590695     0.37700
H180        H  0.39942921  0.52498095  0.28708585     0.34200
H181        H  0.47688035  0.64088560  0.30338759     0.26000
H182        H  0.43930006  0.51031585  0.29306253     0.31900
H183        H  0.40335356  0.47317234  0.22793376     0.37800
H184        H  0.46488006  0.66191641  0.21289051     0.32300
H185        H  0.40767431  0.60677847  0.12254472     0.31100
H186        H  0.38473342  0.53844904  0.11603066     0.32800
H187        H  0.37639277  0.49508876  0.14821348     0.31800
H188        H  0.50374143  0.63596554  0.20275917     0.35800
H189        H  0.50219560  0.60798865  0.15208403     0.28500
H190        H  0.35787967  0.54951246  0.31339990     0.32700
H191        H  0.35849305  0.49377822  0.25238365     0.35600
H192        H  0.40922307  0.61723822  0.16035073     0.28200
H193        H  0.51280560  0.60036905  0.18248369     0.41100
H194        H  0.48262856  0.57126706  0.33795310     0.31100
H195        H  0.48906411  0.62636229  0.29602015     0.38800
H196        H  0.36283413  0.50520914  0.16808969     0.30600
H197        H  0.45190310  0.52484027  0.32737734     0.30700
H198        H  0.36571720  0.53072800  0.31609946     0.30900
Zr199      Zr  0.40567114  0.58084455  0.76317291     2.17500
O200        O  0.36678449  0.55286324  0.78853798    -0.51400
O201        O  0.41313907  0.61878158  0.78783808    -0.74600
O202        O  0.41139043  0.58131362  0.82707030    -0.81400
O203        O  0.38741244  0.59393206  0.67498771    -0.83200
O204        O  0.44053994  0.57338868  0.83390469    -0.78800
O205        O  0.37595046  0.58553841  0.73241760    -0.90400
O206        O  0.45215002  0.64682107  0.78031110    -0.76400
O207        O  0.44559020  0.59727733  0.78095633    -0.85900
O208        O  0.42984640  0.61277477  0.72318496    -0.85600
O209        O  0.41183177  0.54741271  0.76108988    -0.72300
O210        O  0.39879870  0.56166268  0.70632846    -0.84500
Zr211      Zr  0.47206359  0.57945206  0.68427799     2.26400
Zr212      Zr  0.45215348  0.56477930  0.77875053     2.06300
Zr213      Zr  0.42388248  0.59406344  0.66723452     2.10000
Zr214      Zr  0.46957346  0.62964054  0.74235094     1.78800
O215        O  0.39641447  0.57537621  0.61799366    -0.93300
O216        O  0.49653704  0.64695099  0.79247975    -0.41100
O217        O  0.46439660  0.61174934  0.68513334    -0.77700
O218        O  0.47838142  0.59808587  0.74128294    -0.96400
O219        O  0.44704149  0.54664035  0.72248082    -0.89700
O220        O  0.43220529  0.56266292  0.66464842    -0.92500
C221        C  0.43138784  0.64016997  0.79222997     1.01200
C222        C  0.37305805  0.59029398  0.70038823     1.14200
C223        C  0.42616408  0.57905401  0.84599785     1.04900
O224        O  0.47794079  0.57140483  0.82892509    -0.94700
O225        O  0.48585667  0.56081852  0.77082025    -0.90400
O226        O  0.49741399  0.56717445  0.71333633    -0.83600
C227        C  0.49888476  0.56140289  0.74548754     1.11600
O228        O  0.36663280  0.50020365  0.71894085    -0.96700
Zr229      Zr  0.40744911  0.53020925  0.70281318     1.88900
O230        O  0.46274409  0.54374875  0.65137473    -0.73300
O231        O  0.43035654  0.52240240  0.79656333    -0.52600
O232        O  0.40124305  0.49431772  0.73323780    -0.97200
O233        O  0.38048097  0.51777632  0.65246279    -0.54500
O234        O  0.42430452  0.51430542  0.66083509    -0.73800
C235        C  0.44465132  0.52243370  0.64608093     0.98500
O236        O  0.51352715  0.60607031  0.66770405    -0.62600
O237        O  0.43730879  0.63492571  0.64720561    -0.57400
O238        O  0.47401910  0.59023601  0.62208890    -0.94100
O239        O  0.44514667  0.59860551  0.61369783    -0.92600
O240        O  0.47367837  0.66295057  0.70707850    -0.92900
O241        O  0.51062085  0.65778699  0.72519000    -0.91700
C242        C  0.46184497  0.59597378  0.60269953     1.17400
H243        H  0.42552292  0.62475885  0.72216435     0.33300
H244        H  0.49460779  0.60473870  0.74855870     0.44200
H245        H  0.43018522  0.55659645  0.64081933     0.37700
H246        H  0.40120170  0.53501499  0.77755756     0.34200
H247        H  0.48609421  0.64170263  0.81350481     0.26000
H248        H  0.44178435  0.51720019  0.79337187     0.31900
H249        H  0.41343507  0.49155694  0.72353944     0.37800
H250        H  0.47678444  0.67566579  0.72444329     0.32300
H251        H  0.43088055  0.63281243  0.62296078     0.31100
H252        H  0.39770169  0.58908126  0.60457292     0.32800
H253        H  0.37534106  0.50068385  0.64819411     0.31800
H254        H  0.51597658  0.64740433  0.71532877     0.35800
H255        H  0.51553072  0.59875186  0.64611259     0.28500
H256        H  0.36379869  0.56291809  0.80467461     0.32700
H257        H  0.35785989  0.50845575  0.71533953     0.35600
H258        H  0.42810699  0.63994076  0.66131953     0.28200
H259        H  0.51479426  0.62113631  0.65942855     0.41100
H260        H  0.47020886  0.55573521  0.84164800     0.31100
H261        H  0.50440742  0.63765218  0.79390176     0.38800
H262        H  0.39050088  0.52657482  0.63178830     0.30600
H263        H  0.42854422  0.52271087  0.82249373     0.30700
H264        H  0.36920384  0.54224306  0.80436916     0.30900
Zr265      Zr  0.11007312  0.57528613  0.16753252     2.17500
O266        O  0.09489438  0.60015840  0.18720988    -0.51400
O267        O  0.08242888  0.53837093  0.19797406    -0.74600
O268        O  0.07145284  0.56160959  0.13863878    -0.81400
O269        O  0.15717633  0.59289233  0.23677666    -0.83200
O270        O  0.07589100  0.55606116  0.08047951    -0.78800
O271        O  0.12009411  0.58609464  0.22952211    -0.90400
O272        O  0.09006079  0.50933003  0.18288880    -0.76400
O273        O  0.10173878  0.54529647  0.12459056    -0.85900
O274        O  0.13210395  0.55717462  0.18360943    -0.85600
O275        O  0.12343782  0.59718334  0.11290185    -0.72300
O276        O  0.15144260  0.60717638  0.16893492    -0.84500
Zr277      Zr  0.17892980  0.58103079  0.08524748     2.26400
Zr278      Zr  0.11600708  0.56671728  0.07051543     2.06300
Zr279      Zr  0.17318314  0.58836315  0.18282668     2.10000
Zr280      Zr  0.12331302  0.52721965  0.14052757     1.78800
O281        O  0.20368463  0.62634219  0.20937940    -0.93300
O282        O  0.09084447  0.49442534  0.10710013    -0.41100
O283        O  0.16479219  0.55840829  0.13950602    -0.77700
O284        O  0.13775211  0.54805197  0.08459400    -0.96400
O285        O  0.15655832  0.59863821  0.07099450    -0.89700
O286        O  0.18728035  0.61061253  0.12933336    -0.92500
C287        C  0.07826725  0.51682553  0.19964705     1.01200
C288        C  0.13831492  0.59126772  0.24833990     1.14200
C289        C  0.06352906  0.55547119  0.10674512     1.04900
O290        O  0.09323548  0.52805916  0.04005299    -0.94700
O291        O  0.13545890  0.57435901  0.01485423    -0.90400
O292        O  0.17266016  0.58144931  0.02161073    -0.83600
C293        C  0.15573494  0.57996568  0.00305960     1.11600
O294        O  0.15167883  0.65428538  0.13591892    -0.96700
Zr295      Zr  0.16496097  0.62828883  0.11395910     1.88900
O296        O  0.21060733  0.62038612  0.06265877    -0.73300
O297        O  0.10460953  0.58743152  0.02890199    -0.52600
O298        O  0.15468563  0.64522193  0.06483886    -0.97200
O299        O  0.19497450  0.66301218  0.14763889    -0.54500
O300        O  0.19980212  0.64708426  0.07606474    -0.73800
C301        C  0.21367991  0.64162829  0.06114044     0.98500
O302        O  0.19129676  0.55609447  0.05634054    -0.62600
O303        O  0.17938149  0.56440518  0.22593548    -0.57400
O304        O  0.21233923  0.58250900  0.11522438    -0.94100
O305        O  0.20954917  0.58876169  0.17363818    -0.92600
O306        O  0.13398396  0.50839344  0.18634762    -0.92900
O307        O  0.13427697  0.49973010  0.11692369    -0.91700
C308        C  0.21995950  0.58581793  0.14731084     1.17400
H309        H  0.12772167  0.54991457  0.20682914     0.33300
H310        H  0.13542496  0.53661230  0.06635606     0.44200
H311        H  0.20404247  0.62254849  0.13116757     0.37700
H312        H  0.11415557  0.60418440  0.10730825     0.34200
H313        H  0.08420302  0.48021892  0.12302946     0.26000
H314        H  0.08940215  0.57469541  0.01837132     0.31900
H315        H  0.16613957  0.66290170  0.06627499     0.37800
H316        H  0.15142199  0.51643044  0.18448399     0.32300
H317        H  0.18360614  0.57377600  0.24819907     0.31100
H318        H  0.21187564  0.62163412  0.22638051     0.32800
H319        H  0.20986622  0.66332130  0.14394019     0.31800
H320        H  0.14971036  0.51044988  0.10511409     0.35800
H321        H  0.17685886  0.54310521  0.04442051     0.28500
H322        H  0.07884232  0.58851545  0.19653681     0.32700
H323        H  0.13614990  0.64305060  0.14711311     0.35600
H324        H  0.16342707  0.54999780  0.23035572     0.28200
H325        H  0.20187572  0.56623836  0.03687373     0.41100
H326        H  0.08584836  0.53131084  0.01984208     0.31100
H327        H  0.07845642  0.49847552  0.10617300     0.38800
H328        H  0.19084215  0.65820959  0.17269296     0.30600
H329        H  0.10052934  0.59729156  0.04355249     0.30700
H330        H  0.09208783  0.60655749  0.16523833     0.30900
Zr331      Zr  0.10838100  0.57050641  0.66733295     2.17500
O332        O  0.09737322  0.59841117  0.68917002    -0.51400
O333        O  0.07916548  0.53471146  0.69860276    -0.74600
O334        O  0.07079047  0.56058004  0.63786952    -0.81400
O335        O  0.15691027  0.58917633  0.73538875    -0.83200
O336        O  0.07281092  0.54982777  0.58138675    -0.78800
O337        O  0.11981803  0.58255080  0.72865741    -0.90400
O338        O  0.08628612  0.50473986  0.68801758    -0.76400
O339        O  0.09794535  0.53893683  0.62617624    -0.85900
O340        O  0.12863658  0.55072467  0.68465262    -0.85600
O341        O  0.12221133  0.59107646  0.61181038    -0.72300
O342        O  0.15029373  0.60048001  0.66698447    -0.84500
Zr343      Zr  0.17405881  0.57018684  0.58489746     2.26400
Zr344      Zr  0.11236016  0.55897884  0.57111856     2.06300
Zr345      Zr  0.17025762  0.57994735  0.68228860     2.10000
Zr346      Zr  0.11798657  0.51937713  0.64320864     1.78800
O347        O  0.20266726  0.61713312  0.70799544    -0.93300
O348        O  0.08349670  0.48596980  0.61379304    -0.41100
O349        O  0.16005609  0.54868648  0.64019328    -0.77700
O350        O  0.13234822  0.53867325  0.58624891    -0.96400
O351        O  0.15341781  0.58944643  0.56985070    -0.89700
O352        O  0.18420614  0.60073351  0.62789382    -0.92500
C353        C  0.07484372  0.51326380  0.70313850     1.01200
C354        C  0.13853551  0.58865852  0.74684631     1.14200
C355        C  0.06189676  0.55274483  0.60677624     1.04900
O356        O  0.08871751  0.52091712  0.53942166    -0.94700
O357        O  0.13111851  0.56538626  0.51489843    -0.90400
O358        O  0.16835256  0.57257700  0.52151442    -0.83600
C359        C  0.15137597  0.57098903  0.50296020     1.11600
O360        O  0.15128926  0.64852183  0.62299056    -0.96700
Zr361      Zr  0.16427454  0.62057354  0.61128580     1.88900
O362        O  0.20792359  0.60835004  0.56341558    -0.73300
O363        O  0.10006310  0.58088809  0.53374135    -0.52600
O364        O  0.15962745  0.63808174  0.55729712    -0.97200
O365        O  0.19188402  0.65335176  0.65021560    -0.54500
O366        O  0.20157899  0.63827863  0.57866049    -0.73800
C367        C  0.21390164  0.63062486  0.56423922     0.98500
O368        O  0.18250099  0.54220322  0.55594957    -0.62600
O369        O  0.17253160  0.55367197  0.72589870    -0.57400
O370        O  0.20887977  0.57401847  0.61316099    -0.94100
O371        O  0.20726659  0.58142655  0.67138956    -0.92600
O372        O  0.13101036  0.50240092  0.68861436    -0.92900
O373        O  0.12341286  0.48777958  0.61990052    -0.91700
C374        C  0.21750774  0.57854777  0.64464030     1.17400
H375        H  0.12430791  0.54423823  0.70830368     0.33300
H376        H  0.12914221  0.52664419  0.56848807     0.44200
H377        H  0.20108090  0.61196998  0.62988533     0.37700
H378        H  0.11365632  0.59881093  0.60577262     0.34200
H379        H  0.07455704  0.47406552  0.63276867     0.26000
H380        H  0.11486069  0.59652175  0.52864382     0.31900
H381        H  0.16516848  0.63198996  0.53802877     0.37800
H382        H  0.11787183  0.48528797  0.69085599     0.32300
H383        H  0.18659141  0.56467048  0.74044386     0.31100
H384        H  0.20828436  0.61174040  0.72810892     0.32800
H385        H  0.20760156  0.65583877  0.64489482     0.31800
H386        H  0.13242879  0.49452707  0.59767524     0.35800
H387        H  0.16874480  0.53228598  0.54025856     0.28500
H388        H  0.07990335  0.58868782  0.69169256     0.32700
H389        H  0.14707328  0.64631764  0.64839894     0.35600
H390        H  0.15888330  0.54852949  0.74188904     0.28200
H391        H  0.19578482  0.55246252  0.53965836     0.41100
H392        H  0.07657480  0.52251669  0.52678029     0.31100
H393        H  0.07343430  0.49239339  0.60730850     0.38800
H394        H  0.18809232  0.64624998  0.67425316     0.30600
H395        H  0.09549596  0.57217731  0.51087948     0.30700
H396        H  0.10039574  0.60942802  0.66906066     0.30900
Zr397      Zr  0.89255951  0.42620016  0.41300948     2.17500
O398        O  0.90474766  0.39900883  0.43381334    -0.51400
O399        O  0.92197050  0.46296314  0.44212352    -0.74600
O400        O  0.92985850  0.43673101  0.38301319    -0.81400
O401        O  0.84726827  0.41332593  0.48304068    -0.83200
O402        O  0.92384880  0.43793942  0.32395789    -0.78800
O403        O  0.88308124  0.41716383  0.47564590    -0.90400
O404        O  0.91632799  0.49301139  0.42467524    -0.76400
O405        O  0.90178959  0.45424430  0.36626727    -0.85900
O406        O  0.87389318  0.44801231  0.42699706    -0.85600
O407        O  0.87628962  0.40161205  0.36114200    -0.72300
O408        O  0.85059228  0.39697406  0.41766914    -0.84500
Zr409      Zr  0.82407828  0.42160232  0.33111758     2.26400
Zr410      Zr  0.88452099  0.43002240  0.31498169     2.06300
Zr411      Zr  0.83228489  0.41952156  0.42919100     2.10000
Zr412      Zr  0.88360870  0.47604920  0.38050103     1.78800
O413        O  0.80037612  0.38609076  0.46234660    -0.93300
O414        O  0.91761778  0.50579794  0.34584092    -0.41100
O415        O  0.84126869  0.44741407  0.38214238    -0.77700
O416        O  0.86608620  0.45231330  0.32730738    -0.96400
O417        O  0.84327275  0.40030237  0.31887650    -0.89700
O418        O  0.81542512  0.39433176  0.37883743    -0.92500
C419        C  0.92706322  0.48486182  0.44304392     1.01200
C420        C  0.86533055  0.41327639  0.49461658     1.14200
C421        C  0.93668620  0.43979577  0.35045683     1.04900
O422        O  0.90689667  0.46475431  0.27599557    -0.94700
O423        O  0.86296656  0.41983761  0.26066581    -0.90400
O424        O  0.82779423  0.41747875  0.26754865    -0.83600
C425        C  0.84320032  0.41595872  0.24913692     1.11600
O426        O  0.84722597  0.34712877  0.39059837    -0.96700
Zr427      Zr  0.83434071  0.37279753  0.36569451     1.88900
O428        O  0.79018556  0.38189874  0.31379566    -0.73300
O429        O  0.89454122  0.40479406  0.28123195    -0.52600
O430        O  0.84138275  0.35164832  0.31902846    -0.97200
O431        O  0.80493514  0.34095808  0.40414948    -0.54500
O432        O  0.79752624  0.35321760  0.33177806    -0.73800
C433        C  0.78469164  0.35977715  0.31596269     0.98500
O434        O  0.81418779  0.44730410  0.29832996    -0.62600
O435        O  0.83372714  0.45010827  0.46806593    -0.57400
O436        O  0.79122932  0.42163567  0.36082718    -0.94100
O437        O  0.79613783  0.41936160  0.41979419    -0.92600
O438        O  0.87332693  0.49811522  0.42097818    -0.92900
O439        O  0.87796314  0.50615432  0.35193803    -0.91700
C440        C  0.78467337  0.42033599  0.39324648     1.17400
H441        H  0.87902626  0.45603353  0.44959215     0.33300
H442        H  0.86867366  0.46298751  0.30773812     0.44200
H443        H  0.79856060  0.38346805  0.38222930     0.37700
H444        H  0.88442945  0.39325807  0.35643637     0.34200
H445        H  0.93052512  0.50310901  0.35195794     0.26000
H446        H  0.88019820  0.38831667  0.28258597     0.31900
H447        H  0.82764921  0.33477601  0.32023100     0.37800
H448        H  0.87859768  0.49612743  0.44452056     0.32300
H449        H  0.81833863  0.44167323  0.48066410     0.31100
H450        H  0.79919255  0.37145702  0.45237479     0.32800
H451        H  0.80012919  0.32568145  0.39162721     0.31800
H452        H  0.86400850  0.49665215  0.33640665     0.35800
H453        H  0.79711353  0.43669240  0.29266099     0.28500
H454        H  0.92031861  0.40971321  0.44524863     0.32700
H455        H  0.86246025  0.35848356  0.40243954     0.35600
H456        H  0.84553034  0.45303115  0.48650473     0.28200
H457        H  0.81495362  0.45891567  0.31597320     0.41100
H458        H  0.92356977  0.47246499  0.28386818     0.31100
H459        H  0.91349627  0.50020340  0.32108523     0.38800
H460        H  0.79083537  0.34232738  0.40254612     0.30600
H461        H  0.89537681  0.40968375  0.25622150     0.30700
H462        H  0.90842083  0.39308758  0.41215369     0.30900
Zr463      Zr  0.88967057  0.42088229  0.91885279     2.17500
O464        O  0.90474596  0.39621557  0.94005781    -0.51400
O465        O  0.91661223  0.45665540  0.95231955    -0.74600
O466        O  0.92825601  0.43370257  0.89101628    -0.81400
O467        O  0.83958178  0.39868011  0.98513235    -0.83200
O468        O  0.92437985  0.43878829  0.83243931    -0.78800
O469        O  0.87693381  0.40607040  0.97866973    -0.90400
O470        O  0.90981010  0.48631896  0.93762436    -0.76400
O471        O  0.89923587  0.45159822  0.87640506    -0.85900
O472        O  0.86778305  0.43909028  0.93496501    -0.85600
O473        O  0.87686317  0.39951434  0.86379783    -0.72300
O474        O  0.84828682  0.38946071  0.91857666    -0.84500
Zr475      Zr  0.82257073  0.41688187  0.83473075     2.26400
Zr476      Zr  0.88522232  0.43057074  0.82183806     2.06300
Zr477      Zr  0.82658508  0.40830444  0.93223044     2.10000
Zr478      Zr  0.87787462  0.46985925  0.89263926     1.78800
O479        O  0.79229981  0.36910793  0.94865486    -0.93300
O480        O  0.91153203  0.50327741  0.86168308    -0.41100
O481        O  0.83617682  0.43909502  0.88963820    -0.77700
O482        O  0.86391303  0.44960424  0.83614003    -0.96400
O483        O  0.84458572  0.39882563  0.82059447    -0.89700
O484        O  0.81323428  0.38672582  0.87823138    -0.92500
C485        C  0.92095890  0.47823194  0.95488886     1.01200
C486        C  0.85794784  0.39917976  0.99652715     1.14200
C487        C  0.93626577  0.43893859  0.85909601     1.04900
O488        O  0.90777832  0.46921642  0.79114373    -0.94700
O489        O  0.86627164  0.42331893  0.76562067    -0.90400
O490        O  0.82923958  0.41676940  0.77106127    -0.83600
C491        C  0.84648028  0.41859312  0.75290921     1.11600
O492        O  0.84680375  0.34121914  0.88536144    -0.96700
Zr493      Zr  0.83530321  0.36870069  0.86343363     1.88900
O494        O  0.79046793  0.37732922  0.81317187    -0.73300
O495        O  0.90026744  0.41214479  0.78236168    -0.52600
O496        O  0.84608873  0.35195140  0.81477339    -0.97200
O497        O  0.80510288  0.33493771  0.89849224    -0.54500
O498        O  0.80069113  0.34984463  0.82529020    -0.73800
C499        C  0.78695217  0.35589736  0.81145149     0.98500
O500        O  0.81294796  0.44340397  0.80378602    -0.62600
O501        O  0.82156537  0.42725031  0.98420512    -0.57400
O502        O  0.78836054  0.41472170  0.86331563    -0.94100
O503        O  0.79344750  0.41367280  0.92254004    -0.92600
O504        O  0.86652334  0.48880378  0.93718726    -0.92900
O505        O  0.86821560  0.49821060  0.86828619    -0.91700
C506        C  0.78212514  0.41452829  0.89562021     1.17400
H507        H  0.87166117  0.44564397  0.95861377     0.33300
H508        H  0.86659111  0.46133871  0.81814118     0.44200
H509        H  0.79641185  0.37498186  0.87949805     0.37700
H510        H  0.88606962  0.39238469  0.85839185     0.34200
H511        H  0.92348558  0.51255286  0.88022628     0.26000
H512        H  0.88603455  0.39769008  0.77240238     0.31900
H513        H  0.84504620  0.36009487  0.79335562     0.37800
H514        H  0.86083409  0.47748069  0.95746097     0.32300
H515        H  0.82228632  0.44189010  0.97518987     0.31100
H516        H  0.78656401  0.37211133  0.97101830     0.32800
H517        H  0.79008201  0.33401258  0.89304426     0.31800
H518        H  0.85066022  0.48913223  0.86803519     0.35800
H519        H  0.79588645  0.43303781  0.79791243     0.28500
H520        H  0.92053361  0.40789474  0.95017686     0.32700
H521        H  0.85554030  0.34879985  0.90753106     0.35600
H522        H  0.80484346  0.41628718  0.99148629     0.28200
H523        H  0.81376804  0.45465032  0.82214143     0.41100
H524        H  0.91400476  0.46573050  0.76973161     0.31100
H525        H  0.91849769  0.49573309  0.84772012     0.38800
H526        H  0.80866918  0.34069171  0.92325315     0.30600
H527        H  0.90740906  0.42347954  0.76218514     0.30700
H528        H  0.90810136  0.38993897  0.91848786     0.30900
Zr529      Zr  0.57486105  0.10590449  0.09325621     2.17500
O530        O  0.59931050  0.09144133  0.07008650    -0.51400
O531        O  0.53780812  0.07765041  0.06467220    -0.74600
O532        O  0.56209593  0.06691179  0.12360047    -0.81400
O533        O  0.58382668  0.15067233  0.02173908    -0.83200
O534        O  0.56218572  0.07380032  0.18255783    -0.78800
O535        O  0.57640239  0.11244787  0.02929941    -0.90400
O536        O  0.51136700  0.08839960  0.07898947    -0.76400
O537        O  0.54766878  0.09842313  0.13946722    -0.85900
O538        O  0.55709964  0.12875141  0.08034240    -0.85600
O539        O  0.59896107  0.12099386  0.14560556    -0.72300
O540        O  0.60647002  0.14807781  0.08879881    -0.84500
Zr541      Zr  0.58523893  0.17836435  0.17608671     2.26400
Zr542      Zr  0.57123352  0.11437890  0.19130608     2.06300
Zr543      Zr  0.58778050  0.17042080  0.07737299     2.10000
Zr544      Zr  0.52952556  0.12035614  0.12536538     1.78800
O545        O  0.62322264  0.19739660  0.04318880    -0.93300
O546        O  0.49892484  0.08538476  0.15806959    -0.41100
O547        O  0.56051496  0.16282822  0.12405132    -0.77700
O548        O  0.55253297  0.13644870  0.17921585    -0.96400
O549        O  0.60283175  0.15552084  0.18799074    -0.89700
O550        O  0.61197020  0.18584444  0.12864123    -0.92500
C551        C  0.51761433  0.07555550  0.06164140     1.01200
C552        C  0.57870865  0.12995399  0.01020577     1.14200
C553        C  0.55916885  0.06006593  0.15634038     1.04900
O554        O  0.53434990  0.09344646  0.22479914    -0.94700
O555        O  0.58368887  0.13636280  0.24595809    -0.90400
O556        O  0.58966768  0.17389314  0.23986801    -0.83600
C557        C  0.58956614  0.15711880  0.25814230     1.11600
O558        O  0.65412615  0.14812774  0.12095998    -0.96700
Zr559      Zr  0.62974521  0.16326202  0.14178402     1.88900
O560        O  0.62467522  0.21071762  0.19544090    -0.73300
O561        O  0.58929810  0.09843150  0.22961403    -0.52600
O562        O  0.64958435  0.15651607  0.19046111    -0.97200
O563        O  0.66132523  0.19013085  0.10114505    -0.54500
O564        O  0.65064124  0.20079240  0.17611886    -0.73800
C565        C  0.64579175  0.21471196  0.19314952     0.98500
O566        O  0.56089260  0.19019501  0.20725147    -0.62600
O567        O  0.56189278  0.17686473  0.03959869    -0.57400
O568        O  0.58825910  0.21353199  0.14656936    -0.94100
O569        O  0.59181847  0.20946149  0.08764880    -0.92600
O570        O  0.51031772  0.13335505  0.08402842    -0.92900
O571        O  0.50175579  0.12874761  0.15360279    -0.91700
C572        C  0.59093643  0.22115587  0.11437676     1.17400
H573        H  0.54847325  0.12412850  0.05834448     0.33300
H574        H  0.54219443  0.13461632  0.19850932     0.44200
H575        H  0.62371756  0.20286744  0.12566795     0.37700
H576        H  0.60600256  0.11157085  0.15046723     0.34200
H577        H  0.48444120  0.07909171  0.14350442     0.26000
H578        H  0.60584127  0.11205722  0.23307360     0.31900
H579        H  0.64316452  0.15946499  0.21216030     0.37800
H580        H  0.49511981  0.11840890  0.07787115     0.32300
H581        H  0.57083885  0.18357763  0.01730509     0.31100
H582        H  0.61813332  0.20534351  0.02621203     0.32800
H583        H  0.66877401  0.20644197  0.11178733     0.31800
H584        H  0.51192095  0.14485408  0.16461682     0.35800
H585        H  0.55155330  0.17700383  0.22443972     0.28500
H586        H  0.60712861  0.08969037  0.09115449     0.32700
H587        H  0.64608927  0.13898403  0.09920937     0.35600
H588        H  0.54863897  0.16043792  0.03324958     0.28200
H589        H  0.57223706  0.20420506  0.22191444     0.41100
H590        H  0.52910297  0.07612572  0.22357200     0.31100
H591        H  0.50306938  0.07291865  0.15588856     0.38800
H592        H  0.65304663  0.19088780  0.07992475     0.30600
H593        H  0.58163777  0.09593787  0.25299353     0.30700
H594        H  0.61225247  0.10547038  0.05718132     0.30900
Zr595      Zr  0.58002173  0.10898348  0.59462389     2.17500
O596        O  0.60337071  0.09260284  0.57371615    -0.51400
O597        O  0.54387001  0.08024071  0.56358829    -0.74600
O598        O  0.57130068  0.07125294  0.62547259    -0.81400
O599        O  0.60356288  0.16087204  0.52763417    -0.83200
O600        O  0.56337056  0.07512766  0.68272165    -0.78800
O601        O  0.59320357  0.12165505  0.53319982    -0.90400
O602        O  0.51594718  0.08973142  0.57273752    -0.76400
O603        O  0.54892625  0.10020857  0.63491879    -0.85900
O604        O  0.56355632  0.13222599  0.57633561    -0.85600
O605        O  0.59921820  0.12187512  0.65121968    -0.72300
O606        O  0.61156229  0.15111445  0.59667592    -0.84500
Zr607      Zr  0.58198470  0.17779257  0.67664916     2.26400
Zr608      Zr  0.56810654  0.11391333  0.69093175     2.06300
Zr609      Zr  0.59424036  0.17404333  0.58045933     2.10000
Zr610      Zr  0.53232317  0.12292842  0.61586066     1.78800
O611        O  0.63293461  0.20765169  0.56197988    -0.93300
O612        O  0.49734503  0.09006576  0.64511156    -0.41100
O613        O  0.56276087  0.16513333  0.61996733    -0.77700
O614        O  0.55014556  0.13582587  0.67337506    -0.96400
O615        O  0.59914207  0.15532686  0.69476884    -0.89700
O616        O  0.61315972  0.18709380  0.63626052    -0.92500
C617        C  0.52328685  0.07696152  0.55839629     1.01200
C618        C  0.60099011  0.14135910  0.51534126     1.14200
C619        C  0.56559350  0.06337296  0.65763123     1.04900
O620        O  0.53351324  0.08162177  0.72166431    -0.94700
O621        O  0.55866557  0.12714191  0.74387114    -0.90400
O622        O  0.57083989  0.16685022  0.73838513    -0.83600
C623        C  0.56217903  0.14707034  0.75609031     1.11600
O624        O  0.65497568  0.14880182  0.63809385    -0.96700
Zr625      Zr  0.62969486  0.16401032  0.65368333     1.88900
O626        O  0.61959536  0.20900771  0.70316968    -0.73300
O627        O  0.59604694  0.11410714  0.73288370    -0.52600
O628        O  0.64810279  0.15593938  0.70302512    -0.97200
O629        O  0.66311120  0.19369065  0.61805241    -0.54500
O630        O  0.64712990  0.19915931  0.69210874    -0.73800
C631        C  0.64055086  0.21266835  0.70582098     0.98500
O632        O  0.55731661  0.19068382  0.70414952    -0.62600
O633        O  0.57377101  0.17800951  0.52996782    -0.57400
O634        O  0.58584061  0.21309469  0.64664373    -0.94100
O635        O  0.59294192  0.21031492  0.58878033    -0.92600
O636        O  0.51821108  0.13713152  0.56792209    -0.92900
O637        O  0.50541189  0.13549213  0.63466090    -0.91700
C638        C  0.58981179  0.22105762  0.61463990     1.17400
H639        H  0.55766682  0.12837195  0.55235324     0.33300
H640        H  0.53788367  0.13288194  0.68999896     0.44200
H641        H  0.62490779  0.20422251  0.63550813     0.37700
H642        H  0.60597970  0.11244734  0.65772573     0.34200
H643        H  0.49860246  0.07570423  0.64195594     0.26000
H644        H  0.59818743  0.12583623  0.75139661     0.31900
H645        H  0.64172732  0.15919223  0.72448332     0.37800
H646        H  0.51870638  0.12873135  0.54647469     0.32300
H647        H  0.56088605  0.17940826  0.54033080     0.31100
H648        H  0.63017319  0.21233966  0.53841774     0.32800
H649        H  0.66452874  0.20932769  0.62294444     0.31800
H650        H  0.50955572  0.14041148  0.65966896     0.35800
H651        H  0.56833793  0.20783361  0.71077216     0.28500
H652        H  0.61862411  0.10683215  0.56582064     0.32700
H653        H  0.64725445  0.13846849  0.61711862     0.35600
H654        H  0.58505910  0.19424433  0.52006373     0.28200
H655        H  0.54751248  0.19111459  0.68479171     0.41100
H656        H  0.54001845  0.07617596  0.74048254     0.31100
H657        H  0.50021822  0.09379675  0.67065394     0.38800
H658        H  0.65745585  0.18986471  0.59331572     0.30600
H659        H  0.58711005  0.09815304  0.74475820     0.30700
H660        H  0.59543176  0.08374232  0.55173145     0.30900
Zr661      Zr  0.41435040  0.88074741  0.35028434     2.17500
O662        O  0.38780338  0.89469099  0.33614632    -0.51400
O663        O  0.44787041  0.90966178  0.31527486    -0.74600
O664        O  0.42940195  0.92011819  0.38055449    -0.81400
O665        O  0.39353312  0.83241719  0.27942074    -0.83200
O666        O  0.43634776  0.91518828  0.43789693    -0.78800
O667        O  0.40078555  0.87028343  0.28953359    -0.90400
O668        O  0.47762495  0.90286619  0.32272027    -0.76400
O669        O  0.44645776  0.89016324  0.38817372    -0.85900
O670        O  0.43166122  0.85911985  0.32830668    -0.85600
O671        O  0.39602723  0.86654782  0.40695742    -0.72300
O672        O  0.38406233  0.83816705  0.35070456    -0.84500
Zr673      Zr  0.41608184  0.81224058  0.42618261     2.26400
Zr674      Zr  0.42852658  0.87508897  0.44427968     2.06300
Zr675      Zr  0.40226757  0.81678892  0.33097005     2.10000
Zr676      Zr  0.46404546  0.86937551  0.36576609     1.78800
O677        O  0.36388121  0.78436226  0.30934756    -0.93300
O678        O  0.49778271  0.90388991  0.39464760    -0.41100
O679        O  0.43470574  0.82659036  0.36925210    -0.77700
O680        O  0.44716510  0.85452514  0.42366190    -0.96400
O681        O  0.39816882  0.83328338  0.44708097    -0.89700
O682        O  0.38417532  0.80234792  0.38711615    -0.92500
C683        C  0.46879618  0.91447977  0.30862535     1.01200
C684        C  0.39483138  0.85192747  0.26963533     1.14200
C685        C  0.43622549  0.92795551  0.41240362     1.04900
O686        O  0.46672676  0.90361515  0.47114628    -0.94700
O687        O  0.43385914  0.85876248  0.49713728    -0.90400
O688        O  0.42547332  0.82049239  0.48857801    -0.83600
C689        C  0.43154194  0.83905709  0.50788052     1.11600
O690        O  0.33865114  0.83535224  0.39049639    -0.96700
Zr691      Zr  0.36665155  0.82385656  0.40770733     1.88900
O692        O  0.37919670  0.77882439  0.45159360    -0.73300
O693        O  0.40702337  0.88232313  0.48972873    -0.52600
O694        O  0.35059047  0.83233049  0.45962709    -0.97200
O695        O  0.33230366  0.79275388  0.37501533    -0.54500
O696        O  0.35101838  0.78821590  0.44494904    -0.73800
C697        C  0.35809613  0.77447235  0.45610348     0.98500
O698        O  0.44221794  0.80175457  0.45493096    -0.62600
O699        O  0.42370093  0.81231574  0.28239021    -0.57400
O700        O  0.41423755  0.77879222  0.39430937    -0.94100
O701        O  0.40363534  0.78021948  0.33769722    -0.92600
O702        O  0.47909219  0.85852907  0.31508641    -0.92900
O703        O  0.49333895  0.85938877  0.38211322    -0.91700
C704        C  0.40913285  0.77056047  0.36257623     1.17400
H705        H  0.43715845  0.86371591  0.30426596     0.33300
H706        H  0.45964398  0.85738076  0.43979792     0.44200
H707        H  0.37294678  0.78511296  0.38595972     0.37700
H708        H  0.38906426  0.87561219  0.41442273     0.34200
H709        H  0.51169940  0.90734951  0.38032836     0.26000
H710        H  0.39680860  0.88662395  0.47681755     0.31900
H711        H  0.35545108  0.84949244  0.45719183     0.37800
H712        H  0.47157537  0.84076555  0.31686453     0.32300
H713        H  0.43384495  0.82877909  0.27243748     0.31100
H714        H  0.36658458  0.78242877  0.28416028     0.32800
H715        H  0.31967244  0.78441123  0.39301205     0.31800
H716        H  0.49104128  0.85590462  0.40777205     0.35800
H717        H  0.43217802  0.78418969  0.45987570     0.28500
H718        H  0.39818026  0.91089300  0.32546720     0.32700
H719        H  0.34499209  0.84423827  0.36795465     0.35600
H720        H  0.41154289  0.80325088  0.26400131     0.28200
H721        H  0.45348009  0.80345450  0.43636924     0.41100
H722        H  0.47774109  0.89902921  0.46197590     0.31100
H723        H  0.49586898  0.91768996  0.38974673     0.38800
H724        H  0.33625238  0.78063854  0.36821505     0.30600
H725        H  0.39583525  0.86615576  0.49990665     0.30700
H726        H  0.38312894  0.89792853  0.35932745     0.30900
Zr727      Zr  0.42732294  0.89045656  0.84230559     2.17500
O728        O  0.40192320  0.90121869  0.81177507    -0.51400
O729        O  0.46545104  0.92016446  0.81822081    -0.74600
O730        O  0.43750394  0.92981873  0.86798242    -0.81400
O731        O  0.42378877  0.84446048  0.77686160    -0.83200
O732        O  0.43584410  0.92497656  0.92776247    -0.78800
O733        O  0.42836778  0.88172191  0.77949336    -0.90400
O734        O  0.49321364  0.91349557  0.84063852    -0.76400
O735        O  0.45227050  0.90055598  0.89253607    -0.85900
O736        O  0.44793762  0.86984942  0.83695239    -0.85600
O737        O  0.40082773  0.87584552  0.89220443    -0.72300
O738        O  0.39762500  0.84779090  0.83834222    -0.84500
Zr739      Zr  0.41754823  0.82223426  0.93327646     2.26400
Zr740      Zr  0.42640168  0.88478639  0.94194696     2.06300
Zr741      Zr  0.41897912  0.82760901  0.83446991     2.10000
Zr742      Zr  0.47344601  0.88098644  0.88590987     1.78800
O743        O  0.38517436  0.79779373  0.79971546    -0.93300
O744        O  0.49856414  0.91732653  0.92067264    -0.41100
O745        O  0.44462727  0.83788262  0.88416333    -0.77700
O746        O  0.44789518  0.86489843  0.93708002    -0.96400
O747        O  0.39701252  0.84286134  0.93870994    -0.89700
O748        O  0.39250082  0.81228849  0.88295044    -0.92500
C749        C  0.48675022  0.92489782  0.82013843     1.01200
C750        C  0.42775271  0.86412905  0.76289841     1.14200
C751        C  0.43956716  0.93770124  0.89995265     1.04900
O752        O  0.46053996  0.90945201  0.97990281    -0.94700
O753        O  0.41495373  0.86445651  0.99768217    -0.90400
O754        O  0.41195556  0.82812148  0.99548888    -0.83600
C755        C  0.41070509  0.84471288  0.01180910     1.11600
O756        O  0.34766560  0.84739202  0.86514929    -0.96700
Zr757      Zr  0.37206017  0.83299925  0.88895336     1.88900
O758        O  0.37812258  0.78956277  0.95070503    -0.73300
O759        O  0.40193970  0.89511846  0.97628555    -0.52600
O760        O  0.34703492  0.83679549  0.93206710    -0.97200
O761        O  0.34485653  0.80589774  0.84373729    -0.54500
O762        O  0.35112474  0.79545986  0.92309743    -0.73800
C763        C  0.35676929  0.78360898  0.94380546     0.98500
O764        O  0.44208729  0.81255882  0.96860397    -0.62600
O765        O  0.44757277  0.82280701  0.80115798    -0.57400
O766        O  0.41705789  0.78692268  0.90887422    -0.94100
O767        O  0.41553807  0.78966269  0.84930993    -0.92600
O768        O  0.49844661  0.87088595  0.85284764    -0.92900
O769        O  0.50044531  0.87445022  0.92056092    -0.91700
C770        C  0.41603444  0.77885064  0.87736754     1.17400
H771        H  0.45763901  0.87475766  0.81616784     0.33300
H772        H  0.45732616  0.86781843  0.95809242     0.44200
H773        H  0.38167556  0.79504144  0.88032173     0.37700
H774        H  0.39285090  0.88461094  0.89409894     0.34200
H775        H  0.49820211  0.91148745  0.94497386     0.26000
H776        H  0.41326213  0.91030942  0.98879950     0.31900
H777        H  0.35752505  0.84502134  0.95258650     0.37800
H778        H  0.49417642  0.87086676  0.82776805     0.32300
H779        H  0.43792500  0.80809123  0.78665041     0.31100
H780        H  0.39160946  0.79032337  0.78434066     0.32800
H781        H  0.32908608  0.79757764  0.85523844     0.31800
H782        H  0.48998619  0.85909589  0.93335417     0.35800
H783        H  0.45130189  0.82666234  0.98439197     0.28500
H784        H  0.41288666  0.91788007  0.80301396     0.32700
H785        H  0.35767010  0.85929105  0.84676120     0.35600
H786        H  0.45561120  0.81828397  0.81872286     0.28200
H787        H  0.43082512  0.79928976  0.98444197     0.41100
H788        H  0.45376017  0.91106054  0.00225701     0.31100
H789        H  0.51487032  0.92343363  0.91218600     0.38800
H790        H  0.34860866  0.79316990  0.84122323     0.30600
H791        H  0.39404159  0.89982544  0.95874801     0.30700
H792        H  0.39280238  0.90307597  0.83081760     0.30900
C793        C  0.41781830  0.82715267  0.60392141    -0.22600
C794        C  0.43602766  0.84947363  0.61717978     0.09400
C795        C  0.45515795  0.86557766  0.59541257     0.09800
C796        C  0.45488472  0.85959068  0.56001922    -0.17500
C797        C  0.43544244  0.83851205  0.54572358    -0.27900
C798        C  0.41708665  0.82158208  0.56801328     0.18100
C799        C  0.43482174  0.85577675  0.65396423     0.12100
C800        C  0.47497864  0.88978369  0.60877316    -0.12200
H801        H  0.46881778  0.87253829  0.54256125     0.12400
C802        C  0.39596325  0.79870123  0.55361526    -0.23100
H803        H  0.40355676  0.81470581  0.62133556     0.08000
C804        C  0.41866963  0.86228763  0.66512386     0.04400
C805        C  0.41787471  0.86722309  0.70102049    -0.20300
C806        C  0.43323915  0.86618465  0.72521910    -0.12600
C807        C  0.45065231  0.86156590  0.71314397     0.13100
C808        C  0.45075248  0.85578820  0.67785307    -0.23000
C809        C  0.40227980  0.86383174  0.63929523    -0.06100
H810        H  0.40452704  0.87063859  0.71044426     0.14600
C811        C  0.46929917  0.86225362  0.73668851    -0.16300
H812        H  0.46340029  0.85123264  0.66883472     0.08900
H813        H  0.38658054  0.80319494  0.53372919     0.06800
H814        H  0.38310499  0.78777416  0.57478803     0.08000
H815        H  0.40193207  0.78744559  0.54102315     0.07000
H816        H  0.48490483  0.88720075  0.63006532     0.01900
H817        H  0.46755770  0.90034114  0.61919324     0.02400
H818        H  0.48780083  0.90060151  0.58750351     0.05900
H819        H  0.39113459  0.86959834  0.65242007     0.04900
H820        H  0.39029712  0.84589902  0.62697951    -0.00900
H821        H  0.41286035  0.87722859  0.61834369     0.00600
H822        H  0.46677752  0.84400483  0.73787836     0.04300
H823        H  0.46906167  0.86835405  0.76378643     0.06200
H824        H  0.48714605  0.87516423  0.72561220     0.07100
C825        C  0.40524371  0.83265631  0.11076233    -0.22600
C826        C  0.39380161  0.84471603  0.12060633     0.09400
C827        C  0.38604909  0.85441063  0.09473264     0.09800
C828        C  0.39033090  0.85226720  0.05929702    -0.17500
C829        C  0.40310845  0.84157000  0.04910998    -0.27900
C830        C  0.41012188  0.83101178  0.07511300     0.18100
C831        C  0.39120368  0.84807374  0.15833238     0.12100
C832        C  0.37387706  0.86760484  0.10457907    -0.12200
H833        H  0.38445218  0.85994182  0.03939565     0.12400
C834        C  0.42362387  0.81913377  0.06582143    -0.23100
H835        H  0.41103466  0.82523333  0.13118686     0.08000
C836        C  0.37258786  0.82965948  0.17846525     0.04400
C837        C  0.37265274  0.83253089  0.21511306    -0.20300
C838        C  0.39097367  0.85341473  0.23174163    -0.12600
C839        C  0.40847638  0.87272824  0.21098647     0.13100
C840        C  0.40834888  0.86976934  0.17435120    -0.23000
C841        C  0.35321313  0.80675998  0.16133975    -0.06100
H842        H  0.35922341  0.81779645  0.23111046     0.14600
C843        C  0.42827462  0.89569481  0.22737395    -0.16300
H844        H  0.42229668  0.88395495  0.15825519     0.08900
H845        H  0.41263873  0.80327826  0.04849628     0.06800
H846        H  0.42829852  0.81261430  0.08973305     0.08000
H847        H  0.44034082  0.83227748  0.05201489     0.07000
H848        H  0.38592015  0.88366185  0.12096575     0.01900
H849        H  0.35750921  0.85538824  0.11981033     0.02400
H850        H  0.36886245  0.87398508  0.08087435     0.05900
H851        H  0.33991968  0.79423063  0.18096109     0.04900
H852        H  0.36092003  0.79724076  0.14821836    -0.00900
H853        H  0.34391964  0.81124411  0.14129171     0.00600
H854        H  0.43872239  0.89145779  0.24548689     0.04300
H855        H  0.42069485  0.90472207  0.24217534     0.06200
H856        H  0.44060607  0.90863772  0.20716961     0.07100
C857        C  0.53137029  0.99736181  0.68352294    -0.22600
C858        C  0.54357250  0.99869818  0.71467051     0.09400
C859        C  0.56600188  0.01972480  0.72094026     0.09800
C860        C  0.57475036  0.03950843  0.69755333    -0.17500
C861        C  0.56117984  0.03936655  0.66881804    -0.27900
C862        C  0.53961361  0.01753835  0.66097172     0.18100
C863        C  0.53049333  0.98044894  0.74333211     0.12100
C864        C  0.57970322  0.02216211  0.75403226    -0.12200
H865        H  0.59111020  0.05624664  0.70406668     0.12400
C866        C  0.52378388  0.01561748  0.63110239    -0.23100
H867        H  0.51413168  0.98124113  0.67858730     0.08000
C868        C  0.51322532  0.98149158  0.76356555     0.04400
C869        C  0.50044625  0.96391320  0.78958017    -0.20300
C870        C  0.50421980  0.94495702  0.79638373    -0.12600
C871        C  0.52236931  0.94454122  0.77729715     0.13100
C872        C  0.53528849  0.96230952  0.75100183    -0.23000
C873        C  0.50817763  0.00125001  0.75772122    -0.06100
H874        H  0.48691123  0.96471786  0.80433098     0.14600
C875        C  0.52758573  0.92499906  0.78351503    -0.16300
H876        H  0.54884982  0.96178723  0.73591114     0.08900
H877        H  0.50666453  0.01200817  0.64184359     0.06800
H878        H  0.52030390  0.00049238  0.61340671     0.08000
H879        H  0.53184073  0.03233859  0.61507293     0.07000
H880        H  0.58372995  0.00767751  0.75484247     0.01900
H881        H  0.56906600  0.02059371  0.77765241     0.02400
H882        H  0.59673527  0.03991200  0.75526530     0.05900
H883        H  0.49469267  0.99985685  0.77652704     0.04900
H884        H  0.50132745  0.00005927  0.73056444    -0.00900
H885        H  0.52468237  0.01922180  0.76143259     0.00600
H886        H  0.54185134  0.92705192  0.76579883     0.04300
H887        H  0.51142556  0.90698522  0.77848453     0.06200
H888        H  0.53350885  0.92585877  0.81121341     0.07100
C889        C  0.48349213  0.03971698  0.48096859    -0.22600
C890        C  0.48116610  0.01731593  0.48735528     0.09400
C891        C  0.49131309  0.01432252  0.51822020     0.09800
C892        C  0.50436202  0.03398966  0.54110101    -0.17500
C893        C  0.50714632  0.05655868  0.53465609    -0.27900
C894        C  0.49620179  0.05935321  0.50445414     0.18100
C895        C  0.46833308  0.99705881  0.46163387     0.12100
C896        C  0.48830878  0.99029874  0.52716585    -0.12200
H897        H  0.51257827  0.03176165  0.56421026     0.12400
C898        C  0.49849741  0.08311933  0.49632038    -0.23100
H899        H  0.47550968  0.04187092  0.45740064     0.08000
C900        C  0.44351991  0.98092365  0.46336479     0.04400
C901        C  0.43270774  0.95946499  0.44322395    -0.20300
C902        C  0.44620469  0.95367540  0.42162106    -0.12600
C903        C  0.47093121  0.97037377  0.41891925     0.13100
C904        C  0.48161051  0.99206585  0.43835534    -0.23000
C905        C  0.42873232  0.98570856  0.48809288    -0.06100
H906        H  0.41392694  0.94628463  0.44643763     0.14600
C907        C  0.48640390  0.96429416  0.39809915    -0.16300
H908        H  0.50068815  0.00436262  0.43743108     0.08900
H909        H  0.49012625  0.08768909  0.51772148     0.06800
H910        H  0.48958868  0.08238666  0.47108197     0.08000
H911        H  0.51750649  0.09764070  0.49406704     0.07000
H912        H  0.49627720  0.98497440  0.50612657     0.01900
H913        H  0.46915335  0.97624779  0.52955948     0.02400
H914        H  0.49702006  0.99099609  0.55258862     0.05900
H915        H  0.40966029  0.97123410  0.48661527     0.04900
H916        H  0.43053944  0.00315947  0.48107059    -0.00900
H917        H  0.43479119  0.98666008  0.51574439     0.00600
H918        H  0.50532945  0.97923311  0.39876758     0.04300
H919        H  0.48061547  0.96084930  0.37015330     0.06200
H920        H  0.48509680  0.94787391  0.40929006     0.07100
C921        C  0.54133376  0.12167736  0.84619643    -0.22600
C922        C  0.56042352  0.13917870  0.86627102     0.09400
C923        C  0.57667629  0.16198525  0.85122553     0.09800
C924        C  0.57530814  0.16551926  0.81494565    -0.17500
C925        C  0.55756633  0.14696292  0.79407980    -0.27900
C926        C  0.53917959  0.12573030  0.81054451     0.18100
C927        C  0.56310276  0.13313108  0.90284839     0.12100
C928        C  0.59554878  0.18237640  0.87326398    -0.12200
H929        H  0.58911346  0.18204727  0.80249432     0.12400
C930        C  0.51731236  0.10693783  0.79103094    -0.23100
H931        H  0.52825095  0.10459699  0.85824740     0.08000
C932        C  0.54763979  0.13132323  0.92974121     0.04400
C933        C  0.55204184  0.12751352  0.96445219    -0.20300
C934        C  0.57165558  0.12579030  0.97295398    -0.12600
C935        C  0.58604187  0.12564704  0.94578025     0.13100
C936        C  0.58156718  0.12935631  0.91080150    -0.23000
C937        C  0.52734882  0.13477936  0.92225526    -0.06100
H938        H  0.54098563  0.12747230  0.98555603     0.14600
C939        C  0.60650132  0.12248431  0.95291675    -0.16300
H940        H  0.59296940  0.13006171  0.88974083     0.08900
H941        H  0.51659860  0.11253406  0.76358151     0.06800
H942        H  0.50131439  0.10406978  0.80494416     0.08000
H943        H  0.51665653  0.08956259  0.79037108     0.07000
H944        H  0.60757053  0.17718259  0.88478171     0.01900
H945        H  0.58706171  0.18661545  0.89493430     0.02400
H946        H  0.60643863  0.19906789  0.85733225     0.05900
H947        H  0.51769111  0.13378502  0.94677378     0.04900
H948        H  0.51444803  0.12044096  0.90412894    -0.00900
H949        H  0.53417788  0.15278317  0.90995730     0.00600
H950        H  0.60383082  0.10651664  0.93810035     0.04300
H951        H  0.60828197  0.11954084  0.98132271     0.06200
H952        H  0.62327060  0.13881720  0.94397254     0.07100
C953        C  0.59281188  0.12950619  0.41702819    -0.22600
C954        C  0.60946498  0.15272659  0.40429083     0.09400
C955        C  0.62593756  0.17047705  0.42766976     0.09800
C956        C  0.62457329  0.16496097  0.46371981    -0.17500
C957        C  0.60644937  0.14245208  0.47719777    -0.27900
C958        C  0.59082665  0.12419278  0.45334074     0.18100
C959        C  0.60817307  0.15818397  0.36668230     0.12100
C960        C  0.64426009  0.19548394  0.41482850    -0.12200
H961        H  0.63665235  0.17898525  0.48191283     0.12400
C962        C  0.57093000  0.09984250  0.46603274    -0.23100
H963        H  0.58041174  0.11592154  0.39861620     0.08000
C964        C  0.61780232  0.15088967  0.34006667     0.04400
C965        C  0.61280633  0.15271601  0.30469828    -0.20300
C966        C  0.59810308  0.16134709  0.29517668    -0.12600
C967        C  0.58982614  0.17026349  0.32174959     0.13100
C968        C  0.59503169  0.16860339  0.35736707    -0.23000
C969        C  0.63276198  0.14053537  0.34903795    -0.06100
H970        H  0.61958404  0.14630170  0.28427064     0.14600
C971        C  0.57446046  0.18011733  0.31292069    -0.16300
H972        H  0.58787569  0.17434863  0.37814987     0.08900
H973        H  0.56019684  0.08800852  0.44371369     0.06800
H974        H  0.55889881  0.10214705  0.48359987     0.08000
H975        H  0.57830106  0.09051302  0.48068270     0.07000
H976        H  0.63536396  0.20417147  0.40278066     0.01900
H977        H  0.65578186  0.19431404  0.39477077     0.02400
H978        H  0.65569493  0.20723602  0.43673393     0.05900
H979        H  0.63889647  0.13571581  0.32492824     0.04900
H980        H  0.62234114  0.12390079  0.36521060    -0.00900
H981        H  0.64862474  0.15404884  0.36419655     0.00600
H982        H  0.56913879  0.18579201  0.33703523     0.04300
H983        H  0.55811332  0.16604196  0.29927562     0.06200
H984        H  0.58432383  0.19615894  0.29544177     0.07100
C985        C  0.49122418  0.96907675  0.24590855    -0.22600
C986        C  0.50985213  0.96926950  0.22834411     0.09400
C987        C  0.51535319  0.95177868  0.23782409     0.09800
C988        C  0.50211709  0.93465842  0.26451966    -0.17500
C989        C  0.48311904  0.93414713  0.28192580    -0.27900
C990        C  0.47768834  0.95186400  0.27213155     0.18100
C991        C  0.52461648  0.98968007  0.20318088     0.12100
C992        C  0.53472102  0.95063451  0.21912329    -0.12200
H993        H  0.50640801  0.92125476  0.27129380     0.12400
C994        C  0.45810709  0.95355359  0.28931353    -0.23100
H995        H  0.48748109  0.98292447  0.23934628     0.08000
C996        C  0.51511723  0.99362505  0.17215751     0.04400
C997        C  0.52815718  0.01600765  0.15421972    -0.20300
C998        C  0.55052570  0.03450040  0.16621402    -0.12600
C999        C  0.56099444  0.02933968  0.19476913     0.13100
C1000       C  0.54780328  0.00736145  0.21322238    -0.23000
C1001       C  0.49106993  0.97452014  0.15830629    -0.06100
H1002       H  0.52006452  0.01973207  0.13248311     0.14600
C1003       C  0.58591735  0.04700877  0.20711994    -0.16300
H1004       H  0.55533129  0.00458968  0.23681954     0.08900
H1005       H  0.44055962  0.93736387  0.28298407     0.06800
H1006       H  0.45775627  0.96949782  0.27981904     0.08000
H1007       H  0.46063282  0.95536248  0.31831954     0.07000
H1008       H  0.55212343  0.96752720  0.22349285     0.01900
H1009       H  0.53090861  0.94809012  0.19034176     0.02400
H1010       H  0.53612004  0.93534734  0.22885021     0.05900
H1011       H  0.48669291  0.98034551  0.13336741     0.04900
H1012       H  0.47706125  0.97061394  0.17784511    -0.00900
H1013       H  0.49084438  0.95766590  0.15282669     0.00600
H1014       H  0.58557632  0.05271323  0.23464358     0.04300
H1015       H  0.59528088  0.06331107  0.19006767     0.06200
H1016       H  0.59627341  0.03811925  0.20653739     0.07100
C1017       C  0.48273135  0.01638459  0.01114998    -0.22600
C1018       C  0.47933642  0.02416930  0.97839541     0.09400
C1019       C  0.48625269  0.04863991  0.97436972     0.09800
C1020       C  0.49700287  0.06485555  0.00304065    -0.17500
C1021       C  0.50114187  0.05714752  0.03555215    -0.27900
C1022       C  0.49354413  0.03245550  0.03954891     0.18100
C1023       C  0.46911466  0.00607311  0.94905187     0.12100
C1024       C  0.48291675  0.05770923  0.93960812    -0.12200
H1025       H  0.50328993  0.08384059  0.99947703     0.12400
C1026       C  0.49688164  0.02247900  0.07339688    -0.23100
H1027       H  0.47733049  0.99759208  0.01437280     0.08000
C1028       C  0.48354342  0.00066301  0.92865816     0.04400
C1029       C  0.47294424  0.97970493  0.90741834    -0.20300
C1030       C  0.44826141  0.96347212  0.90714144    -0.12600
C1031       C  0.43381041  0.96989007  0.92544266     0.13100
C1032       C  0.44438250  0.99118584  0.94587865    -0.23000
C1033       C  0.51016590  0.01599601  0.93144062    -0.06100
H1034       H  0.48409994  0.97460625  0.89413073     0.14600
C1035       C  0.40717712  0.95377189  0.92561342    -0.16300
H1036       H  0.43323992  0.99524294  0.96146083     0.08900
H1037       H  0.50892276  0.01579835  0.06863300     0.06800
H1038       H  0.47948806  0.00717975  0.08269269     0.08000
H1039       H  0.50434284  0.03610976  0.09484635     0.07000
H1040       H  0.46380710  0.04757014  0.93255808     0.01900
H1041       H  0.49293774  0.05505231  0.91855487     0.02400
H1042       H  0.48932797  0.07728227  0.94076312     0.05900
H1043       H  0.51884190  0.00934442  0.91377831     0.04900
H1044       H  0.51574048  0.01566324  0.95900174    -0.00900
H1045       H  0.51648971  0.03494382  0.92390898     0.00600
H1046       H  0.40086175  0.94750331  0.95298541     0.04300
H1047       H  0.40066682  0.93767101  0.90841022     0.06200
H1048       H  0.39933830  0.96409828  0.91582231     0.07100
C1049       C  0.74342464  0.29993534  0.75767179    -0.22600
C1050       C  0.72187173  0.29799828  0.76538430     0.09400
C1051       C  0.72187686  0.31564928  0.78701107     0.09800
C1052       C  0.74346965  0.33476645  0.80058180    -0.17500
C1053       C  0.76505980  0.33644832  0.79371200    -0.27900
C1054       C  0.76500276  0.31883084  0.77160284     0.18100
C1055       C  0.69954783  0.27673112  0.75156841     0.12100
C1056       C  0.69907209  0.31396913  0.79661543    -0.12200
H1057       H  0.74340139  0.34806422  0.81760282     0.12400
C1058       C  0.78759567  0.32003041  0.76190917    -0.23100
H1059       H  0.74327834  0.28634832  0.74096680     0.08000
C1060       C  0.68903446  0.27787753  0.71977000     0.04400
C1061       C  0.66858564  0.25692007  0.70700032    -0.20300
C1062       C  0.65904532  0.23460228  0.72437096    -0.12600
C1063       C  0.66968409  0.23339799  0.75608551     0.13100
C1064       C  0.68965043  0.25454071  0.76945378    -0.23000
C1065       C  0.70016576  0.30079987  0.69821456    -0.06100
H1066       H  0.66079205  0.25763553  0.68219878     0.14600
C1067       C  0.66057440  0.21012260  0.77624958    -0.16300
H1068       H  0.69791721  0.25360032  0.79361233     0.08900
H1069       H  0.78437136  0.30593578  0.74226629     0.06800
H1070       H  0.79549718  0.31701507  0.78565439     0.08000
H1071       H  0.80042017  0.33797407  0.75017630     0.07000
H1072       H  0.68705397  0.29653702  0.81026087     0.01900
H1073       H  0.69017182  0.31500100  0.77250220     0.02400
H1074       H  0.70220289  0.32888808  0.81452092     0.05900
H1075       H  0.68995555  0.29841400  0.67368239     0.04900
H1076       H  0.71843053  0.30616996  0.69050680    -0.00900
H1077       H  0.70097408  0.31562779  0.71373310     0.00600
H1078       H  0.67448116  0.20559154  0.77707118     0.04300
H1079       H  0.64435321  0.19464265  0.76439565     0.06200
H1080       H  0.65619660  0.21237293  0.80373334     0.07100
C1081       C  0.70615659  0.26144317  0.23501282    -0.22600
C1082       C  0.70171550  0.27876332  0.24810440     0.09400
C1083       C  0.67912676  0.27531833  0.24256957     0.09800
C1084       C  0.66154948  0.25458584  0.22432173    -0.17500
C1085       C  0.66573532  0.23682886  0.21140969    -0.27900
C1086       C  0.68864257  0.24053295  0.21720893     0.18100
C1087       C  0.72117864  0.30012807  0.26760164     0.12100
C1088       C  0.67334844  0.29321362  0.25663856    -0.12200
H1089       H  0.64432694  0.25225708  0.22033651     0.12400
C1090       C  0.69503672  0.22252465  0.20577673    -0.23100
H1091       H  0.72358370  0.26426586  0.23915245     0.08000
C1092       C  0.72920127  0.29751027  0.30093365     0.04400
C1093       C  0.74954779  0.31736661  0.31622826    -0.20300
C1094       C  0.76200284  0.34016584  0.29956177    -0.12600
C1095       C  0.75311548  0.34309501  0.26703787     0.13100
C1096       C  0.73302730  0.32301003  0.25139475    -0.23000
C1097       C  0.71614871  0.27378644  0.32060990    -0.06100
H1098       H  0.75584913  0.31500972  0.34142783     0.14600
C1099       C  0.76521314  0.36698520  0.24778725    -0.16300
H1100       H  0.72687957  0.32500077  0.22583134     0.08900
H1101       H  0.68277945  0.20468265  0.21821943     0.06800
H1102       H  0.71332049  0.22814262  0.21386715     0.08000
H1103       H  0.69424061  0.22086412  0.17654447     0.07000
H1104       H  0.68513718  0.31120661  0.24432963     0.01900
H1105       H  0.67584682  0.29480059  0.28575282     0.02400
H1106       H  0.65472435  0.28755364  0.25084686     0.05900
H1107       H  0.72420925  0.27508444  0.34688438     0.04900
H1108       H  0.71653398  0.25948126  0.30534662    -0.00900
H1109       H  0.69743894  0.26838118  0.32481612     0.00600
H1110       H  0.78396621  0.37302982  0.24232093     0.04300
H1111       H  0.76447901  0.38076897  0.26397381     0.06200
H1112       H  0.75648800  0.36568562  0.22212518     0.07100
C1113       C  0.88020561  0.42207017  0.59208628    -0.22600
C1114       C  0.85729825  0.40737215  0.60607351     0.09400
C1115       C  0.83824937  0.39194940  0.58380412     0.09800
C1116       C  0.84225759  0.39247332  0.54755915    -0.17500
C1117       C  0.86469753  0.40861685  0.53285963    -0.27900
C1118       C  0.88418870  0.42292792  0.55545778     0.18100
C1119       C  0.85308230  0.40929880  0.64375075     0.12100
C1120       C  0.81344503  0.37585432  0.59803492    -0.12200
H1121       H  0.82736175  0.38127752  0.53024508     0.12400
C1122       C  0.90873584  0.44001167  0.54112501    -0.23100
H1123       H  0.89474446  0.43361030  0.60973014     0.08000
C1124       C  0.85284018  0.39321992  0.66879628     0.04400
C1125       C  0.84781733  0.39518618  0.70402955    -0.20300
C1126       C  0.84390958  0.41341132  0.71495683    -0.12600
C1127       C  0.84371784  0.42925823  0.68970702     0.13100
C1128       C  0.84810715  0.42682108  0.65417067    -0.23000
C1129       C  0.85893025  0.37477814  0.65864728    -0.06100
H1130       H  0.84843916  0.38339449  0.72368995     0.14600
C1131       C  0.84010709  0.44949189  0.69942566    -0.16300
H1132       H  0.84811144  0.43895680  0.63452310     0.08900
H1133       H  0.92167858  0.45006520  0.56261192     0.06800
H1134       H  0.90859969  0.45345605  0.52323298     0.08000
H1135       H  0.91491618  0.42964688  0.52636222     0.07000
H1136       H  0.80761433  0.38702118  0.61130757     0.01900
H1137       H  0.81295868  0.36278995  0.61735752     0.02400
H1138       H  0.80054174  0.36535779  0.57669853     0.05900
H1139       H  0.85808349  0.36377709  0.68171003     0.04900
H1140       H  0.87721411  0.38415583  0.64779874    -0.00900
H1141       H  0.84639814  0.36227721  0.63833477     0.00600
H1142       H  0.85617380  0.46712473  0.69227971     0.04300
H1143       H  0.83665067  0.44989091  0.72796878     0.06200
H1144       H  0.82471405  0.44738719  0.68457891     0.07100
C1145       C  0.83279675  0.37782138  0.08633042    -0.22600
C1146       C  0.85121146  0.39620890  0.10629984     0.09400
C1147       C  0.87393447  0.41102688  0.09126888     0.09800
C1148       C  0.87669520  0.40956411  0.05488167    -0.17500
C1149       C  0.85731915  0.39326373  0.03397114    -0.27900
C1150       C  0.83572466  0.37582731  0.05027272     0.18100
C1151       C  0.84588236  0.40004312  0.14242840     0.12100
C1152       C  0.89504397  0.42853959  0.11334720    -0.12200
H1153       H  0.89341609  0.42252023  0.04242319     0.12400
C1154       C  0.81527197  0.35549447  0.03016541    -0.23100
H1155       H  0.81576800  0.36561448  0.09863321     0.08000
C1156       C  0.84279975  0.41935224  0.15078946     0.04400
C1157       C  0.83933705  0.42313721  0.18619562    -0.20300
C1158       C  0.83813703  0.40748104  0.21261918    -0.12600
C1159       C  0.83857014  0.38666520  0.20337018     0.13100
C1160       C  0.84279209  0.38339801  0.16837832    -0.23000
C1161       C  0.84313267  0.43582862  0.12245490    -0.06100
H1162       H  0.83893161  0.43899791  0.19346967     0.14600
C1163       C  0.83542408  0.36798114  0.23010161    -0.16300
H1164       H  0.84412686  0.36802028  0.16138846     0.08900
H1165       H  0.81023294  0.33794155  0.04257606     0.06800
H1166       H  0.81974938  0.35467154  0.00217571     0.08000
H1167       H  0.79979868  0.35764709  0.03104487     0.07000
H1168       H  0.89807662  0.41841743  0.13410904     0.01900
H1169       H  0.89203206  0.44194888  0.12621123     0.02400
H1170       H  0.91142015  0.43860914  0.09713915     0.05900
H1171       H  0.83996903  0.44963171  0.13361683     0.04900
H1172       H  0.82898147  0.42496898  0.10280843    -0.00900
H1173       H  0.86048264  0.44546584  0.10871703     0.00600
H1174       H  0.82049622  0.34988052  0.22185153     0.04300
H1175       H  0.83123390  0.37151586  0.25691661     0.06200
H1176       H  0.85184507  0.36750483  0.23149566     0.07100
C1177       C  0.27918840  0.67897659  0.55163498    -0.22600
C1178       C  0.27894564  0.68750539  0.51766548     0.09400
C1179       C  0.25752003  0.67613740  0.49825938     0.09800
C1180       C  0.23670599  0.65697623  0.51366640    -0.17500
C1181       C  0.23678390  0.64899470  0.54809758    -0.27900
C1182       C  0.25837973  0.65993991  0.56718414     0.18100
C1183       C  0.30063632  0.70980735  0.50433132     0.12100
C1184       C  0.25647591  0.68478081  0.46176208    -0.12200
H1185       H  0.22013774  0.64860041  0.49915018     0.12400
C1186       C  0.26001965  0.65250233  0.60430496    -0.23100
H1187       H  0.29559290  0.68778393  0.56659230     0.08000
C1188       C  0.30575811  0.73294955  0.51442938     0.04400
C1189       C  0.32535707  0.75368633  0.49957736    -0.20300
C1190       C  0.34012987  0.75199588  0.47477958    -0.12600
C1191       C  0.33546270  0.72879469  0.46547361     0.13100
C1192       C  0.31573709  0.70796607  0.48039140    -0.23000
C1193       C  0.29005539  0.73574216  0.54009823    -0.06100
H1194       H  0.32885913  0.77140091  0.50672967     0.14600
C1195       C  0.35044688  0.72585224  0.43855529    -0.16300
H1196       H  0.31171842  0.69015156  0.47273232     0.08900
H1197       H  0.26645619  0.66822306  0.62232396     0.06800
H1198       H  0.27274904  0.64639663  0.60495726     0.08000
H1199       H  0.24282654  0.63755452  0.61456130     0.07000
H1200       H  0.26877031  0.68309103  0.44393483     0.01900
H1201       H  0.26170447  0.70402440  0.46285436     0.02400
H1202       H  0.23835965  0.67404495  0.45033543     0.05900
H1203       H  0.29637448  0.75506769  0.54481831     0.04900
H1204       H  0.28981858  0.72744853  0.56586356    -0.00900
H1205       H  0.27172246  0.72666537  0.52948508     0.00600
H1206       H  0.36894835  0.73452292  0.44829745     0.04300
H1207       H  0.35031548  0.73434901  0.41315572     0.06200
H1208       H  0.34374972  0.70648436  0.43339216     0.07100
C1209       C  0.98571228  0.44070944  0.80884646    -0.22600
C1210       C  0.00327854  0.46534320  0.81141786     0.09400
C1211       C  0.00045154  0.47988048  0.83613832     0.09800
C1212       C  0.97915392  0.46985720  0.85540276    -0.17500
C1213       C  0.96074029  0.44565996  0.85070037    -0.27900
C1214       C  0.96453544  0.43069705  0.82819644     0.18100
C1215       C  0.02180777  0.47621427  0.78345766     0.12100
C1216       C  0.01914290  0.50634100  0.84038206    -0.12200
H1217       H  0.97599035  0.48158696  0.87136655     0.12400
C1218       C  0.94584910  0.40442003  0.82226601    -0.23100
H1219       H  0.98786008  0.42955106  0.78987213     0.08000
C1220       C  0.04451987  0.47970117  0.78755968     0.04400
C1221       C  0.06123357  0.49058506  0.76000283    -0.20300
C1222       C  0.05565813  0.49801624  0.72855826    -0.12600
C1223       C  0.03256000  0.49356961  0.72401872     0.13100
C1224       C  0.01595031  0.48269290  0.75146476    -0.23000
C1225       C  0.05110129  0.47204898  0.82094537    -0.06100
H1226       H  0.07898013  0.49413565  0.76352644     0.14600
C1227       C  0.02527802  0.50000339  0.69005010    -0.16300
H1228       H  0.99830555  0.47948065  0.74818113     0.08900
H1229       H  0.95333358  0.39312600  0.82847435     0.10400
H1230       H  0.94013980  0.40158292  0.79417152     0.08000
H1231       H  0.93000304  0.39806363  0.83920446     0.07000
H1232       H  0.02200933  0.51592863  0.81485147     0.01900
H1233       H  0.03607042  0.50846511  0.84909003     0.02400
H1234       H  0.01394359  0.51512518  0.86044031     0.05900
H1235       H  0.06943904  0.47580024  0.81967279     0.04900
H1236       H  0.03875372  0.45232030  0.82512727    -0.00900
H1237       H  0.05000664  0.48196062  0.84392064     0.00600
H1238       H  0.00624153  0.49408420  0.69027831     0.04300
H1239       H  0.02817759  0.49095615  0.66752425     0.06200
H1240       H  0.03578930  0.51987505  0.68588171     0.07100
C1241       C  0.98557710  0.51585445  0.49276011    -0.22600
C1242       C  0.97922812  0.52158209  0.52494237     0.09400
C1243       C  0.95644190  0.51808440  0.52827213     0.09800
C1244       C  0.94016246  0.50780602  0.49993599    -0.17500
C1245       C  0.94617774  0.50094606  0.46834513    -0.27900
C1246       C  0.96937554  0.50551814  0.46460457     0.18100
C1247       C  0.99682129  0.53039379  0.55457010     0.12100
C1248       C  0.94920436  0.52475209  0.56189660    -0.12200
H1249       H  0.92229903  0.50398750  0.50312189     0.12400
C1250       C  0.97703552  0.49930880  0.43091223    -0.23100
H1251       H  0.00317082  0.51885733  0.49005667     0.08000
C1252       C  0.99871951  0.51398927  0.57673993     0.04400
C1253       C  0.01912841  0.52235106  0.59783941    -0.20300
C1254       C  0.03766678  0.54678999  0.59750838    -0.12600
C1255       C  0.03471503  0.56347026  0.57778167     0.13100
C1256       C  0.01435271  0.55512168  0.55660374    -0.23000
C1257       C  0.97982915  0.48742043  0.57656221    -0.06100
H1258       H  0.02150845  0.50942218  0.61228180     0.14600
C1259       C  0.05386328  0.58994160  0.57736472    -0.16300
H1260       H  0.01287516  0.56771915  0.53974264     0.08900
H1261       H  0.99591926  0.50471099  0.43194573     0.06800
H1262       H  0.97488742  0.50894451  0.40841124     0.08000
H1263       H  0.96615165  0.47951276  0.42615840     0.07000
H1264       H  0.96131330  0.54439689  0.56706223     0.01900
H1265       H  0.95013504  0.51435045  0.58439950     0.02400
H1266       H  0.93080349  0.52080264  0.56027471     0.05900
H1267       H  0.98406165  0.47704784  0.59520614     0.04900
H1268       H  0.97805609  0.47984261  0.54966567    -0.00900
H1269       H  0.96260801  0.48486549  0.58461815     0.00600
H1270       H  0.04885648  0.60060465  0.56073525     0.04300
H1271       H  0.07055254  0.59245383  0.56666389     0.06200
H1272       H  0.05706318  0.59720526  0.60470356     0.07100
C1273       C  0.25683940  0.70113481  0.01296168    -0.22600
C1274       C  0.27641839  0.69895738  0.00776131     0.09400
C1275       C  0.27509868  0.67751157  0.01831567     0.09800
C1276       C  0.25442983  0.65903799  0.03518519    -0.17500
C1277       C  0.23481649  0.66136617  0.04154668    -0.27900
C1278       C  0.23601649  0.68268139  0.02917591     0.18100
C1279       C  0.29792916  0.71953320  0.99089942     0.12100
C1280       C  0.29547862  0.67414995  0.01156077    -0.12200
H1281       H  0.25377341  0.64283205  0.04380187     0.12400
C1282       C  0.21541313  0.68621983  0.03177560    -0.23100
H1283       H  0.25790732  0.71751986  0.00410589     0.08000
C1284       C  0.29964269  0.72263999  0.95384829     0.04400
C1285       C  0.31923351  0.74352154  0.93916124    -0.20300
C1286       C  0.33717199  0.76141803  0.96067179    -0.12600
C1287       C  0.33553984  0.75825371  0.99781710     0.13100
C1288       C  0.31592500  0.73731051  0.01246619    -0.23000
C1289       C  0.28059308  0.70405033  0.92988487    -0.06100
H1290       H  0.32048944  0.74600322  0.91072720     0.14600
C1291       C  0.35383608  0.77742799  0.02210469    -0.16300
H1292       H  0.31429755  0.73502962  0.04091979     0.08900
H1293       H  0.19945182  0.67067306  0.01937767     0.06800
H1294       H  0.21902784  0.70287144  0.01787220     0.08000
H1295       H  0.21187334  0.68815669  0.05983701     0.07000
H1296       H  0.31156828  0.68845422  0.02543932     0.01900
H1297       H  0.29913676  0.67536541  0.98274863     0.02400
H1298       H  0.29157028  0.65625675  0.02105147     0.05900
H1299       H  0.28480085  0.70906219  0.90158578     0.04900
H1300       H  0.26344201  0.70237343  0.93583490    -0.00900
H1301       H  0.27870773  0.68623797  0.93397286     0.00600
H1302       H  0.35516274  0.79492000  0.01722958     0.04300
H1303       H  0.37135803  0.77967665  0.01742828     0.06200
H1304       H  0.34921636  0.77260431  0.05036973     0.07100
C1305       C  0.98652241  0.44087731  0.30159535    -0.22600
C1306       C  0.00358625  0.46575781  0.30208945     0.09400
C1307       C  0.00024068  0.48098836  0.32461237     0.09800
C1308       C  0.97910721  0.47127410  0.34416673    -0.17500
C1309       C  0.96114818  0.44674068  0.34143109    -0.27900
C1310       C  0.96534063  0.43119133  0.32097975     0.18100
C1311       C  0.02251034  0.47611215  0.27467088     0.12100
C1312       C  0.01830980  0.50777800  0.32620672    -0.12200
H1313       H  0.97567828  0.48330961  0.35896900     0.12400
C1314       C  0.94725217  0.40448804  0.31778975    -0.23100
H1315       H  0.98909253  0.42916992  0.28436594     0.08000
C1316       C  0.04514540  0.47965271  0.28015904     0.04400
C1317       C  0.06275028  0.49140521  0.25392042    -0.20300
C1318       C  0.05820262  0.49992938  0.22264045    -0.12600
C1319       C  0.03521325  0.49556889  0.21682211     0.13100
C1320       C  0.01771430  0.48364997  0.24278247    -0.23000
C1321       C  0.05085346  0.47170205  0.31405524    -0.06100
H1322       H  0.08045003  0.49510660  0.25865439     0.14600
C1323       C  0.02858607  0.50353245  0.18368704    -0.16300
H1324       H  0.00027181  0.48078074  0.23851499     0.08900
H1325       H  0.95533930  0.39411516  0.32623377     0.06800
H1326       H  0.94141475  0.39996017  0.28985714     0.08000
H1327       H  0.93140101  0.39857689  0.33452966     0.07000
H1328       H  0.02031890  0.51602707  0.29973166     0.01900
H1329       H  0.03568901  0.51092473  0.33477882     0.02400
H1330       H  0.01302670  0.51708124  0.34518516     0.05900
H1331       H  0.06938394  0.47595598  0.31426871     0.04900
H1332       H  0.03873276  0.45185330  0.31734805    -0.00900
H1333       H  0.04862213  0.48106140  0.33680164     0.00600
H1334       H  0.01308202  0.48764852  0.17101289     0.04300
H1335       H  0.04305385  0.51172614  0.16391324     0.06200
H1336       H  0.02379541  0.51698317  0.19050850     0.07100
C1337       C  0.15103326  0.60617169  0.91821758    -0.22600
C1338       C  0.15241577  0.59088004  0.89397758     0.09400
C1339       C  0.15944865  0.57488977  0.90513133     0.09800
C1340       C  0.16266669  0.57286164  0.94135529    -0.17500
C1341       C  0.15951845  0.58697918  0.96587194    -0.27900
C1342       C  0.15493937  0.60475798  0.95403897     0.18100
C1343       C  0.14677129  0.59236731  0.85692555     0.12100
C1344       C  0.16330317  0.55992617  0.87890783    -0.12200
H1345       H  0.16635550  0.55943922  0.95063272     0.12400
C1346       C  0.15358237  0.62221720  0.97862922    -0.23100
H1347       H  0.14651641  0.61904035  0.90916370     0.08000
C1348       C  0.12438053  0.57558193  0.84231833     0.04400
C1349       C  0.12081451  0.57649614  0.80597501    -0.20300
C1350       C  0.13912057  0.59400685  0.78457175    -0.12600
C1351       C  0.16034463  0.61261920  0.80030955     0.13100
C1352       C  0.16406614  0.61133171  0.83632322    -0.23000
C1353       C  0.10455765  0.55649896  0.86485830    -0.06100
H1354       H  0.10446155  0.56241001  0.79389501     0.14600
C1355       C  0.17958999  0.63367974  0.77958868    -0.16300
H1356       H  0.18077002  0.62486508  0.84825026     0.08900
H1357       H  0.13539858  0.61889973  0.97809740     0.06800
H1358       H  0.16627150  0.64105163  0.96973768     0.08000
H1359       H  0.15825608  0.62084960  0.00628071     0.07000
H1360       H  0.17732843  0.57206324  0.85984866     0.01900
H1361       H  0.14670263  0.54775125  0.86419513     0.02400
H1362       H  0.16899035  0.54859516  0.89213915     0.05900
H1363       H  0.08820414  0.54496814  0.84914066     0.04900
H1364       H  0.10029804  0.56532558  0.88612827    -0.00900
H1365       H  0.10987132  0.54458841  0.87704243     0.00600
H1366       H  0.17436183  0.63391369  0.75180903     0.04300
H1367       H  0.19590910  0.63298156  0.77974772     0.06200
H1368       H  0.18359085  0.65088810  0.79200417     0.07100
C1369       C  0.12473191  0.57564262  0.34417586    -0.22600
C1370       C  0.14689248  0.59255676  0.35866668     0.09400
C1371       C  0.16438793  0.61147760  0.33773034     0.09800
C1372       C  0.15952078  0.61255930  0.30209650    -0.17500
C1373       C  0.13811696  0.59445741  0.28668169    -0.27900
C1374       C  0.12015867  0.57618142  0.30814262     0.18100
C1375       C  0.15153879  0.58941969  0.39558674     0.12100
C1376       C  0.18873071  0.62937567  0.35215981    -0.12200
H1377       H  0.17332932  0.62637741  0.28538110     0.12400
C1378       C  0.09699618  0.55625300  0.29282501    -0.23100
H1379       H  0.11142711  0.56129918  0.36082664     0.08000
C1380       C  0.14862039  0.60226785  0.42281115     0.04400
C1381       C  0.15129731  0.59726796  0.45771134    -0.20300
C1382       C  0.15539889  0.57877087  0.46604736    -0.12600
C1383       C  0.15863186  0.56605829  0.43880367     0.13100
C1384       C  0.15703924  0.57188184  0.40362098    -0.23000
C1385       C  0.14090646  0.61984420  0.41530412    -0.06100
H1386       H  0.14847564  0.60668961  0.47888001     0.14600
C1387       C  0.16226691  0.54548386  0.44578647    -0.16300
H1388       H  0.15895302  0.56190321  0.38234384     0.08900
H1389       H  0.08527507  0.54317256  0.31339440     0.06800
H1390       H  0.10036590  0.54607008  0.27264310     0.08000
H1391       H  0.08743182  0.56412602  0.28044964     0.07000
H1392       H  0.19712923  0.61958616  0.36192210     0.01900
H1393       H  0.18759309  0.63985123  0.37424618     0.02400
H1394       H  0.20048059  0.64246397  0.33162700     0.05900
H1395       H  0.13889312  0.62780572  0.43998503     0.04900
H1396       H  0.12352430  0.61030981  0.40151942    -0.00900
H1397       H  0.15405035  0.63491128  0.39841528     0.00600
H1398       H  0.14756103  0.52866302  0.43362780     0.04300
H1399       H  0.16277218  0.54196924  0.47432183     0.06200
H1400       H  0.17928596  0.54968782  0.43384355     0.07100
C1401       C  0.98181691  0.51245273  0.99754727    -0.22600
C1402       C  0.97669661  0.51743684  0.03122193     0.09400
C1403       C  0.95353000  0.51206153  0.03842630     0.09800
C1404       C  0.93572368  0.50067456  0.01225212    -0.17500
C1405       C  0.94065756  0.49449058  0.97917134    -0.27900
C1406       C  0.96410091  0.50082564  0.97172736     0.18100
C1407       C  0.99578061  0.52671638  0.05858130     0.12100
C1408       C  0.94752071  0.51767401  0.07400070    -0.12200
H1409       H  0.91771104  0.49557652  0.01819826     0.12400
C1410       C  0.97038524  0.49485017  0.93665587    -0.23100
H1411       H  0.99964831  0.51678897  0.99197393     0.08000
C1412       C  0.00210559  0.51117767  0.07417625     0.04400
C1413       C  0.02323716  0.52106771  0.09376328    -0.20300
C1414       C  0.03836044  0.54616795  0.09815880    -0.12600
C1415       C  0.03136000  0.56161434  0.08431517     0.13100
C1416       C  0.01002648  0.55171025  0.06497226    -0.23000
C1417       C  0.98711126  0.48417944  0.06871750    -0.06100
H1418       H  0.02892518  0.50924145  0.10324800     0.14600
C1419       C  0.04718129  0.58864736  0.08808148    -0.16300
H1420       H  0.00525362  0.56362329  0.05283621     0.08900
H1421       H  0.98962730  0.50180014  0.93465814     0.06800
H1422       H  0.96568688  0.50312444  0.91505997     0.08000
H1423       H  0.96056107  0.47493445  0.93305746     0.07000
H1424       H  0.95860413  0.53745523  0.07894894     0.01900
H1425       H  0.95098093  0.50798730  0.09496338     0.02400
H1426       H  0.92858914  0.51203853  0.07557880     0.05900
H1427       H  0.99444963  0.47465513  0.08296491     0.04900
H1428       H  0.98624933  0.47982313  0.04019384    -0.00900
H1429       H  0.96889821  0.47716611  0.07871744     0.00600
H1430       H  0.06448930  0.59508704  0.07505757     0.04300
H1431       H  0.05020782  0.59350266  0.11654291     0.06200
H1432       H  0.03918974  0.59817921  0.07578448     0.07100
C1433       C  0.40529803  0.67197201  0.84393701    -0.22600
C1434       C  0.42362961  0.69629046  0.84083187     0.09400
C1435       C  0.44481805  0.70196139  0.82375871     0.09800
C1436       C  0.44701880  0.68329486  0.80948671    -0.17500
C1437       C  0.42833659  0.65878431  0.81103259    -0.27900
C1438       C  0.40719007  0.65316009  0.82922855     0.18100
C1439       C  0.41948923  0.71571388  0.85230392     0.12100
C1440       C  0.46486358  0.72789596  0.81952067    -0.12200
H1441       H  0.46330440  0.68813256  0.79595289     0.12400
C1442       C  0.38624871  0.62759379  0.83321044    -0.23100
H1443       H  0.38903875  0.66777971  0.85698811     0.08000
C1444       C  0.40771879  0.72335103  0.82993695     0.04400
C1445       C  0.40582609  0.74303246  0.83992012    -0.20300
C1446       C  0.41572959  0.75583711  0.87168461    -0.12600
C1447       C  0.42692753  0.74760078  0.89467550     0.13100
C1448       C  0.42856839  0.72762332  0.88469783    -0.23000
C1449       C  0.39786119  0.71122331  0.79479777    -0.06100
H1450       H  0.39703609  0.74886773  0.82211431     0.14600
C1451       C  0.43817768  0.76032542  0.92891317    -0.16300
H1452       H  0.43761118  0.72168079  0.90176938     0.08900
H1453       H  0.37847250  0.61996774  0.80690655     0.06800
H1454       H  0.37194885  0.62678137  0.84948369     0.08000
H1455       H  0.39185102  0.61620813  0.84648304     0.07000
H1456       H  0.47113763  0.73635560  0.84592214     0.01900
H1457       H  0.45867502  0.73811363  0.80431080     0.02400
H1458       H  0.48013631  0.72933455  0.80521407     0.05900
H1459       H  0.38947827  0.71958224  0.78020136     0.04900
H1460       H  0.38422091  0.69179606  0.79893489    -0.00900
H1461       H  0.41234554  0.71278453  0.77812277     0.00600
H1462       H  0.42445271  0.75924892  0.94685248     0.04300
H1463       H  0.45196901  0.77956593  0.92365310     0.06200
H1464       H  0.44681781  0.75197080  0.94280693     0.07100
C1465       C  0.32848501  0.60330154  0.65727352    -0.22600
C1466       C  0.30773566  0.58735876  0.67599042     0.09400
C1467       C  0.30864100  0.57292045  0.70302365     0.09800
C1468       C  0.33029322  0.57494585  0.71102938    -0.17500
C1469       C  0.35114463  0.59053132  0.69194210    -0.27900
C1470       C  0.35013095  0.60503423  0.66466146     0.18100
C1471       C  0.28521300  0.58604719  0.66700498     0.12100
C1472       C  0.28657193  0.55488005  0.72285680    -0.12200
H1473       H  0.33071762  0.56363197  0.73166880     0.12400
C1474       C  0.37174635  0.62282033  0.64365204    -0.23100
H1475       H  0.32766955  0.61438440  0.63661712     0.08000
C1476       C  0.27784355  0.59966698  0.68566156     0.04400
C1477       C  0.25577790  0.59675511  0.67780840    -0.20300
C1478       C  0.24101885  0.58108278  0.65081857    -0.12600
C1479       C  0.24907404  0.56826466  0.63098312     0.13100
C1480       C  0.27087970  0.57071964  0.63968272    -0.23000
C1481       C  0.29347974  0.61755991  0.71355110    -0.06100
H1482       H  0.25017782  0.60710150  0.69261584     0.14600
C1483       C  0.23473661  0.55155661  0.60110800    -0.16300
H1484       H  0.27680467  0.56054815  0.62515066     0.08900
H1485       H  0.36795472  0.63373285  0.62541062     0.06800
H1486       H  0.37786994  0.61309341  0.62720428     0.08000
H1487       H  0.38611976  0.63551010  0.66182878     0.07000
H1488       H  0.27326580  0.54147698  0.70405310     0.01900
H1489       H  0.27894425  0.56426162  0.73656678     0.02400
H1490       H  0.29028374  0.54490690  0.74301966     0.05900
H1491       H  0.28523420  0.62693976  0.72544381     0.04900
H1492       H  0.31064673  0.63146498  0.70156035    -0.00900
H1493       H  0.29688373  0.60817872  0.73502988     0.00600
H1494       H  0.23326101  0.56209187  0.57929843     0.04300
H1495       H  0.21680269  0.53753782  0.61067501     0.06200
H1496       H  0.24316821  0.54214041  0.58999702     0.07100
C1497       C  0.40005716  0.66462090  0.33647734    -0.22600
C1498       C  0.41360594  0.68733534  0.32015725     0.09400
C1499       C  0.42914853  0.69046563  0.29249934     0.09800
C1500       C  0.43054307  0.67074335  0.28137423    -0.17500
C1501       C  0.41709023  0.64780106  0.29753096    -0.27900
C1502       C  0.40160450  0.64478904  0.32565687     0.18100
C1503       C  0.41140377  0.70775640  0.33229262     0.12100
C1504       C  0.44431185  0.71468222  0.27467812    -0.12200
H1505       H  0.44232150  0.67337529  0.25969544     0.12400
C1506       C  0.38723747  0.62115095  0.34521335    -0.23100
H1507       H  0.38829200  0.66247682  0.35792417     0.08000
C1508       C  0.39352706  0.71117574  0.31919370     0.04400
C1509       C  0.39294376  0.73152648  0.32997965    -0.20300
C1510       C  0.40983447  0.74860499  0.35372484    -0.12600
C1511       C  0.42771191  0.74493692  0.36689087     0.13100
C1512       C  0.42822648  0.72460501  0.35596650    -0.23000
C1513       C  0.37539323  0.69355196  0.29326278    -0.06100
H1514       H  0.37926697  0.73416849  0.31966799     0.14600
C1515       C  0.44682513  0.76264848  0.39156215    -0.16300
H1516       H  0.44203199  0.72193060  0.36560733     0.08900
H1517       H  0.37407726  0.60693856  0.32719880     0.06800
H1518       H  0.37728609  0.62261199  0.36762785     0.08000
H1519       H  0.39914814  0.61557847  0.35610217     0.07000
H1520       H  0.45641009  0.72833440  0.29431836     0.01900
H1521       H  0.43287127  0.72056380  0.26291717     0.02400
H1522       H  0.45534021  0.71397172  0.25325552     0.05900
H1523       H  0.36265875  0.69884400  0.28544020     0.04900
H1524       H  0.36521853  0.67523383  0.30529837    -0.00900
H1525       H  0.38442318  0.69283727  0.26903912     0.00600
H1526       H  0.43881156  0.76223707  0.41738149     0.04300
H1527       H  0.45596119  0.78114864  0.38008749     0.06200
H1528       H  0.46041458  0.75800361  0.39653032     0.07100
C1529       C  0.31652432  0.59224930  0.20917293    -0.22600
C1530       C  0.30150649  0.57859244  0.18111492     0.09400
C1531       C  0.30619358  0.56289160  0.16223602     0.09800
C1532       C  0.32553578  0.56098871  0.17211312    -0.17500
C1533       C  0.34037320  0.57429231  0.20058748    -0.27900
C1534       C  0.33590555  0.59035123  0.21913208     0.18100
C1535       C  0.28068541  0.58060718  0.17256082     0.12100
C1536       C  0.29064464  0.54791452  0.13190498    -0.12200
H1537       H  0.32909687  0.54895128  0.15749622     0.12400
C1538       C  0.35199719  0.60621370  0.24844688    -0.23100
H1539       H  0.31305069  0.60451544  0.22329978     0.08000
C1540       C  0.26047421  0.57008950  0.19454413     0.04400
C1541       C  0.24127261  0.57248627  0.18572107    -0.20300
C1542       C  0.24158415  0.58514252  0.15530978    -0.12600
C1543       C  0.26217890  0.59623392  0.13372036     0.13100
C1544       C  0.28124080  0.59347219  0.14237427    -0.23000
C1545       C  0.25892394  0.55582331  0.22693293    -0.06100
H1546       H  0.22566402  0.56399877  0.20244834     0.14600
C1547       C  0.26535403  0.61210591  0.10249202    -0.16300
H1548       H  0.29694186  0.60191863  0.12583458     0.08900
H1549       H  0.35140989  0.59482033  0.27070220     0.06800
H1550       H  0.34657969  0.61851857  0.25882320     0.08000
H1551       H  0.37047572  0.61754125  0.23854576     0.07000
H1552       H  0.29113284  0.55993135  0.11066530     0.01900
H1553       H  0.27211135  0.53597396  0.14123766     0.02400
H1554       H  0.29658534  0.53632594  0.12037463     0.05900
H1555       H  0.24166520  0.54827969  0.24072287     0.04900
H1556       H  0.27318048  0.56763973  0.24586754    -0.00900
H1557       H  0.26086269  0.54052098  0.21922270     0.00600
H1558       H  0.28206830  0.62997144  0.10568520     0.04300
H1559       H  0.25099203  0.61577175  0.09965809     0.06200
H1560       H  0.26648828  0.60355391  0.07783258     0.07100
C1561       C  0.44648474  0.56906812  0.00568384    -0.22600
C1562       C  0.44531327  0.58871476  0.99346243     0.09400
C1563       C  0.44867876  0.60700651  0.01684985     0.09800
C1564       C  0.45215968  0.60468915  0.05265794    -0.17500
C1565       C  0.45180993  0.58425627  0.06547620    -0.27900
C1566       C  0.44946923  0.56640383  0.04166298     0.18100
C1567       C  0.44015808  0.58946930  0.95598600     0.12100
C1568       C  0.44752827  0.62831894  0.00426579    -0.12200
H1569       H  0.45359934  0.61810526  0.07118031     0.12400
C1570       C  0.44845011  0.54367620  0.05313222    -0.23100
H1571       H  0.44409793  0.55524346  0.98717459     0.08000
C1572       C  0.45862964  0.60073861  0.93126860     0.04400
C1573       C  0.45294168  0.59903161  0.89552219    -0.20300
C1574       C  0.42925973  0.58519798  0.88379115    -0.12600
C1575       C  0.41064258  0.57498139  0.90882253     0.13100
C1576       C  0.41644497  0.57748790  0.94487600    -0.23000
C1577       C  0.48427374  0.61338027  0.94244807    -0.06100
H1578       H  0.46722325  0.60722044  0.87631919     0.14600
C1579       C  0.38476347  0.56028491  0.89901042    -0.16300
H1580       H  0.40240481  0.56907850  0.96441882     0.08900
H1581       H  0.46302291  0.54290025  0.04023467     0.06800
H1582       H  0.43125592  0.52758314  0.04490387     0.08000
H1583       H  0.45015055  0.54243103  0.08199749     0.07000
H1584       H  0.42985265  0.62185395  0.99248660     0.01900
H1585       H  0.46139190  0.63864202  0.98404302     0.02400
H1586       H  0.45035142  0.64085774  0.02625697     0.05900
H1587       H  0.49647797  0.62099183  0.91946965     0.04900
H1588       H  0.48759014  0.60034154  0.95605620    -0.00900
H1589       H  0.48857883  0.62846229  0.96074190     0.00600
H1590       H  0.37660884  0.54176175  0.91012634     0.04300
H1591       H  0.38154028  0.55849770  0.87022913     0.06200
H1592       H  0.37562245  0.56891977  0.91032590     0.07100
C1593       C  0.45677531  0.57718942  0.50814406    -0.22600
C1594       C  0.45340193  0.59465981  0.49254152     0.09400
C1595       C  0.45756817  0.61491195  0.51209602     0.09800
C1596       C  0.46409087  0.61670520  0.54760491    -0.17500
C1597       C  0.46527141  0.59809953  0.56428272    -0.27900
C1598       C  0.46240272  0.57847494  0.54408857     0.18100
C1599       C  0.44490915  0.59088624  0.45585089     0.12100
C1600       C  0.45341701  0.63363399  0.49638063    -0.12200
H1601       H  0.46604517  0.63155771  0.56335565     0.12400
C1602       C  0.46322245  0.55790473  0.56077059    -0.23100
H1603       H  0.45374827  0.56185543  0.49252591     0.08000
C1604       C  0.46105388  0.60127558  0.42773041     0.04400
C1605       C  0.45254537  0.59528632  0.39323411    -0.20300
C1606       C  0.42847447  0.57840653  0.38619579    -0.12600
C1607       C  0.41208576  0.56862617  0.41430992     0.13100
C1608       C  0.42057388  0.57518626  0.44905635    -0.23000
C1609       C  0.48738213  0.61746112  0.43404640    -0.06100
H1610       H  0.46503844  0.60279883  0.37145962     0.14600
C1611       C  0.38604875  0.55054263  0.40883814    -0.16300
H1612       H  0.40831769  0.56726405  0.47103476     0.08900
H1613       H  0.46027340  0.54394742  0.54105110     0.06800
H1614       H  0.44914726  0.54898307  0.58113836     0.08000
H1615       H  0.48082859  0.56486553  0.57313595     0.07000
H1616       H  0.43464159  0.62485600  0.48788569     0.01900
H1617       H  0.46506078  0.64241778  0.47319206     0.02400
H1618       H  0.45710385  0.64802468  0.51575190     0.05900
H1619       H  0.49745898  0.62361538  0.40884766     0.04900
H1620       H  0.49381172  0.60746368  0.44925431    -0.00900
H1621       H  0.49136941  0.63376123  0.44913498     0.00600
H1622       H  0.38088000  0.53348538  0.42296876     0.04300
H1623       H  0.38125314  0.54610804  0.38063825     0.06200
H1624       H  0.37565151  0.55794382  0.41965234     0.07100
C1625       C  0.56460595  0.29793151  0.06059119    -0.22600
C1626       C  0.58525049  0.30518598  0.07995706     0.09400
C1627       C  0.60138693  0.33012618  0.08576543     0.09800
C1628       C  0.59652953  0.34719242  0.07187448    -0.17500
C1629       C  0.57583465  0.34010437  0.05202865    -0.27900
C1630       C  0.55959564  0.31477151  0.04652660     0.18100
C1631       C  0.58956577  0.28601119  0.09243265     0.12100
C1632       C  0.62368809  0.33872251  0.10677395    -0.12200
H1633       H  0.60915303  0.36626011  0.07651219     0.12400
C1634       C  0.53709937  0.30483250  0.02525100    -0.23100
H1635       H  0.55237556  0.27874407  0.05607173     0.08000
C1636       C  0.57741688  0.27112932  0.12180027     0.04400
C1637       C  0.57890232  0.25072044  0.12901044    -0.20300
C1638       C  0.59217190  0.24454458  0.10743793    -0.12600
C1639       C  0.60552675  0.26044844  0.07919686     0.13100
C1640       C  0.60397841  0.28084584  0.07212962    -0.23000
C1641       C  0.56271410  0.27672920  0.14539644    -0.06100
H1642       H  0.56891904  0.23903703  0.15097844     0.14600
C1643       C  0.62169884  0.25635662  0.05648790    -0.16300
H1644       H  0.61346057  0.29242902  0.04980241     0.08900
H1645       H  0.52717680  0.28477774  0.02327753     0.06800
H1646       H  0.54142162  0.31207067  0.99789598     0.08000
H1647       H  0.52509875  0.30960276  0.03803416     0.07000
H1648       H  0.63479949  0.33294524  0.09361575     0.01900
H1649       H  0.61905783  0.33087907  0.13378961     0.02400
H1650       H  0.63434986  0.35875802  0.10919281     0.05900
H1651       H  0.55462377  0.26356955  0.16750021     0.04900
H1652       H  0.54819675  0.27608116  0.12995162    -0.00900
H1653       H  0.57408810  0.29509166  0.15686795     0.00600
H1654       H  0.63226298  0.27167876  0.03800908     0.04300
H1655       H  0.61115106  0.23984148  0.04022567     0.06200
H1656       H  0.63430359  0.25453269  0.07344744     0.07100
C1657       C  0.68665979  0.40731963  0.96371540    -0.22600
C1658       C  0.69832409  0.41737307  0.93151801     0.09400
C1659       C  0.68920831  0.42762263  0.90856356     0.09800
C1660       C  0.66869672  0.42745612  0.91815130    -0.17500
C1661       C  0.65679216  0.41726355  0.95021100    -0.27900
C1662       C  0.66613020  0.40721742  0.97350414     0.18100
C1663       C  0.72001248  0.41699464  0.92229181     0.12100
C1664       C  0.70120901  0.43896295  0.87396376    -0.12200
H1665       H  0.66185934  0.43536159  0.90030743     0.12400
C1666       C  0.65422914  0.39560693  0.00809767    -0.23100
H1667       H  0.69359487  0.39931509  0.98117489     0.08000
C1668       C  0.74179716  0.43177435  0.94002843     0.04400
C1669       C  0.76170746  0.43076252  0.93040619    -0.20300
C1670       C  0.76063719  0.41560948  0.90301916    -0.12600
C1671       C  0.73883007  0.40094379  0.88507772     0.13100
C1672       C  0.71882432  0.40172367  0.89508734    -0.23000
C1673       C  0.74418815  0.44894680  0.96873016    -0.06100
H1674       H  0.77832207  0.44201137  0.94428866     0.14600
C1675       C  0.73623293  0.38366023  0.85645023    -0.16300
H1676       H  0.70205019  0.39021907  0.88174040     0.08900
H1677       H  0.65477821  0.40935476  0.02604341     0.06800
H1678       H  0.66321040  0.38755340  0.02185055     0.08000
H1679       H  0.63552659  0.38092126  0.00333625     0.07000
H1680       H  0.70077463  0.42510076  0.85643300     0.01900
H1681       H  0.71991379  0.45358716  0.87882219     0.02400
H1682       H  0.69229971  0.44695397  0.85984124     0.05900
H1683       H  0.76260816  0.45976138  0.97902514     0.04900
H1684       H  0.73234397  0.43868957  0.99118907    -0.00900
H1685       H  0.73935528  0.46167418  0.95815095     0.00600
H1686       H  0.71773010  0.37273751  0.84650589     0.04300
H1687       H  0.74116475  0.37101732  0.86703757     0.06200
H1688       H  0.74782233  0.39383057  0.83371157     0.07100
C1689       C  0.56675677  0.52498629  0.82275530    -0.22600
C1690       C  0.54331990  0.51928974  0.81893875     0.09400
C1691       C  0.52532365  0.50047197  0.83961374     0.09800
C1692       C  0.53108583  0.48788167  0.86353217    -0.17500
C1693       C  0.55451307  0.49339026  0.86773852    -0.27900
C1694       C  0.57258499  0.51219619  0.84668281     0.18100
C1695       C  0.53767951  0.53377471  0.79481421     0.12100
C1696       C  0.49994617  0.49387798  0.83690841    -0.12200
H1697       H  0.51701572  0.47361910  0.87935196     0.12400
C1698       C  0.59782084  0.51838519  0.84829326    -0.23100
H1699       H  0.58052832  0.53949254  0.80688492     0.08000
C1700       C  0.54011775  0.55555115  0.80637158     0.04400
C1701       C  0.52964147  0.56581787  0.78675651    -0.20300
C1702       C  0.51630963  0.55471787  0.75600053    -0.12600
C1703       C  0.51554302  0.53391672  0.74283396     0.13100
C1704       C  0.52638966  0.52385660  0.76233961    -0.23000
C1705       C  0.55244174  0.56711747  0.84067554    -0.06100
H1706       H  0.53026642  0.58166921  0.79706201     0.14600
C1707       C  0.50210375  0.52074450  0.70995465    -0.16300
H1708       H  0.52460187  0.50716848  0.75336077     0.08900
H1709       H  0.60527598  0.52516845  0.87501472     0.06800
H1710       H  0.60928861  0.53271680  0.82893791     0.08000
H1711       H  0.59844923  0.50207937  0.84211018     0.07000
H1712       H  0.49329719  0.48793106  0.80959509     0.01900
H1713       H  0.49881496  0.50981153  0.84367842     0.02400
H1714       H  0.48811551  0.47890270  0.85517513     0.05900
H1715       H  0.55247554  0.58387504  0.84618598     0.04900
H1716       H  0.57113711  0.57195810  0.83945537    -0.00900
H1717       H  0.54330727  0.55432412  0.86290248     0.00600
H1718       H  0.51442813  0.52009457  0.69085233     0.04300
H1719       H  0.49368922  0.52939036  0.69659010     0.06200
H1720       H  0.48793770  0.50193457  0.71684421     0.07100
C1721       C  0.43113343  0.46938152  0.07007271    -0.22600
C1722       C  0.45351963  0.47190779  0.07036690     0.09400
C1723       C  0.46910320  0.48438947  0.09874617     0.09800
C1724       C  0.46251814  0.49483813  0.12513543    -0.17500
C1725       C  0.44047570  0.49297257  0.12474109    -0.27900
C1726       C  0.42443432  0.47978017  0.09694322     0.18100
C1727       C  0.46087269  0.46138082  0.04159165     0.12100
C1728       C  0.49288473  0.48676513  0.10124573    -0.12200
H1729       H  0.47503194  0.50511693  0.14593285     0.12400
C1730       C  0.40078231  0.47759397  0.09469002    -0.23100
H1731       H  0.41906129  0.45961473  0.04850105     0.08000
C1732       C  0.45505788  0.43717310  0.04324098     0.04400
C1733       C  0.46738169  0.42968937  0.02187060    -0.20300
C1734       C  0.48597785  0.44595360  0.99949566    -0.12600
C1735       C  0.49085438  0.46985648  0.99634507     0.13100
C1736       C  0.47785845  0.47705370  0.01672996    -0.23000
C1737       C  0.43718370  0.41975564  0.06963667    -0.06100
H1738       H  0.46403127  0.41160447  0.02519924     0.14600
C1739       C  0.51096117  0.48877162  0.97405156    -0.16300
H1740       H  0.48256882  0.49572451  0.01558758     0.08900
H1741       H  0.38993441  0.46776573  0.11820943     0.06800
H1742       H  0.39076630  0.46746943  0.07075473     0.08000
H1743       H  0.40338716  0.49588553  0.09358448     0.07000
H1744       H  0.50400354  0.49692670  0.07811887     0.01900
H1745       H  0.49037820  0.46851056  0.10192671     0.02400
H1746       H  0.50266874  0.49659228  0.12549229     0.05900
H1747       H  0.43506098  0.40168353  0.06816441     0.04900
H1748       H  0.41967879  0.41744811  0.06437733    -0.00900
H1749       H  0.44297276  0.42684243  0.09685115     0.00600
H1750       H  0.50398768  0.49617865  0.95446988     0.04300
H1751       H  0.52024426  0.48148328  0.95931543     0.06200
H1752       H  0.52408670  0.50374240  0.99124404     0.07100
C1753       C  0.56654593  0.29825739  0.55016174    -0.22600
C1754       C  0.58354731  0.30399034  0.57637481     0.09400
C1755       C  0.59818843  0.32828983  0.58728161     0.09800
C1756       C  0.59520404  0.34629119  0.57201842    -0.17500
C1757       C  0.57792928  0.34064566  0.54580515    -0.27900
C1758       C  0.56358188  0.31606762  0.53451993     0.18100
C1759       C  0.58673428  0.28430780  0.58954014     0.12100
C1760       C  0.61696036  0.33515344  0.61499536    -0.12200
H1761       H  0.60635860  0.36485567  0.58083846     0.12400
C1762       C  0.54565049  0.30820285  0.50504742    -0.23100
H1763       H  0.55573121  0.27961214  0.54144818     0.08000
C1764       C  0.57246622  0.26820938  0.61663036     0.04400
C1765       C  0.57456047  0.24836224  0.62526422    -0.20300
C1766       C  0.59007567  0.24371160  0.60666688    -0.12600
C1767       C  0.60473899  0.26031996  0.57995838     0.13100
C1768       C  0.60293217  0.28038209  0.57203030    -0.23000
C1769       C  0.55466505  0.27168696  0.63582186    -0.06100
H1770       H  0.56329448  0.23585919  0.64569953     0.14600
C1771       C  0.62254823  0.25733539  0.55970690    -0.16300
H1772       H  0.61375138  0.29277363  0.55117313     0.08900
H1773       H  0.53082915  0.31032880  0.51315799     0.06800
H1774       H  0.53772103  0.28883826  0.49810796     0.08000
H1775       H  0.55436304  0.31901109  0.48089658     0.07000
H1776       H  0.62976801  0.33029652  0.60583521     0.01900
H1777       H  0.60858769  0.32533331  0.63995500     0.02400
H1778       H  0.62694413  0.35488025  0.62059834     0.05900
H1779       H  0.54503652  0.25763431  0.65643945     0.04900
H1780       H  0.54142458  0.27060840  0.61678448    -0.00900
H1781       H  0.56384225  0.28968167  0.64884391     0.00600
H1782       H  0.61330391  0.24106798  0.54261317     0.04300
H1783       H  0.63452581  0.25573051  0.57839662     0.06200
H1784       H  0.63369921  0.27304877  0.54213731     0.07100
C1785       C  0.72642444  0.40700880  0.43475348    -0.22600
C1786       C  0.72224992  0.42294957  0.41607161     0.09400
C1787       C  0.73830640  0.43771348  0.38942223     0.09800
C1788       C  0.75815505  0.43606504  0.38186524    -0.17500
C1789       C  0.76266300  0.42036734  0.40094445    -0.27900
C1790       C  0.74642180  0.40559051  0.42778744     0.18100
C1791       C  0.70049822  0.42321958  0.42431913     0.12100
C1792       C  0.73447045  0.45523608  0.36910544    -0.12200
H1793       H  0.77051491  0.44750829  0.36150225     0.12400
C1794       C  0.74958870  0.38778591  0.44872017    -0.23100
H1795       H  0.71390004  0.39560703  0.45499707     0.08000
C1796       C  0.67847371  0.40631898  0.40886498     0.04400
C1797       C  0.65810403  0.40637593  0.41850598    -0.20300
C1798       C  0.65912954  0.42294004  0.44334996    -0.12600
C1799       C  0.68138764  0.44037434  0.45806486     0.13100
C1800       C  0.70176381  0.44015933  0.44855244    -0.23000
C1801       C  0.67653128  0.38830290  0.38200887    -0.06100
H1802       H  0.64118597  0.39324145  0.40674792     0.14600
C1803       C  0.68394534  0.45982367  0.48259221    -0.16300
H1804       H  0.71879643  0.45328499  0.45999381     0.08900
H1805       H  0.73422913  0.37645462  0.46636008     0.06800
H1806       H  0.76552443  0.39757570  0.46577595     0.08000
H1807       H  0.75137088  0.37549512  0.43049294     0.07000
H1808       H  0.73446547  0.46845416  0.38759632     0.01900
H1809       H  0.71718134  0.44527734  0.35511214     0.02400
H1810       H  0.74862429  0.46546002  0.34917363     0.05900
H1811       H  0.65808155  0.37651244  0.37221692     0.04900
H1812       H  0.68213736  0.37656741  0.39403204    -0.00900
H1813       H  0.68810052  0.39802050  0.35901462     0.00600
H1814       H  0.67402368  0.45160239  0.50741686     0.04300
H1815       H  0.67703294  0.47015064  0.46956745     0.06200
H1816       H  0.70277201  0.47280828  0.48975023     0.07100
C1817       C  0.58151665  0.41926811  0.69717778    -0.22600
C1818       C  0.55825456  0.40066172  0.70538243     0.09400
C1819       C  0.54262750  0.38604866  0.67846322     0.09800
C1820       C  0.55043603  0.39095374  0.64350981    -0.17500
C1821       C  0.57306705  0.41069851  0.63494986    -0.27900
C1822       C  0.58911065  0.42468649  0.66198788     0.18100
C1823       C  0.55020622  0.39795531  0.74213338     0.12100
C1824       C  0.51731035  0.36643761  0.68631766    -0.12200
H1825       H  0.53815492  0.38049590  0.62242434     0.12400
C1826       C  0.61360363  0.44610086  0.65463711    -0.23100
H1827       H  0.59339792  0.43032659  0.71825866     0.08000
C1828       C  0.55094614  0.38135723  0.76497946     0.04400
C1829       C  0.54499219  0.38091172  0.80044825    -0.20300
C1830       C  0.54028674  0.39803680  0.81407079    -0.12600
C1831       C  0.53890207  0.41424899  0.79085469     0.13100
C1832       C  0.54332520  0.41355142  0.75478967    -0.23000
C1833       C  0.55988324  0.36558628  0.75267618    -0.06100
H1834       H  0.54635968  0.36872276  0.81842286     0.14600
C1835       C  0.53493586  0.43362675  0.80421652    -0.16300
H1836       H  0.54296053  0.42628105  0.73672195     0.08900
H1837       H  0.62694436  0.44328271  0.66758165     0.06800
H1838       H  0.61525208  0.46274303  0.66553770     0.08000
H1839       H  0.61778043  0.44899632  0.62604055     0.07000
H1840       H  0.50803752  0.37446390  0.69914398     0.01900
H1841       H  0.51676106  0.35267966  0.70422294     0.02400
H1842       H  0.50744618  0.35706110  0.66187471     0.05900
H1843       H  0.55986871  0.35408886  0.77439054     0.04900
H1844       H  0.57836413  0.37714949  0.74290051    -0.00900
H1845       H  0.54860204  0.35349738  0.73104048     0.00600
H1846       H  0.53497911  0.44505008  0.78235904     0.04300
H1847       H  0.54926777  0.44567343  0.82294912     0.06200
H1848       H  0.51752498  0.42517625  0.81778164     0.07100
C1849       C  0.54758849  0.42681132  0.25750786    -0.22600
C1850       C  0.55257017  0.41010865  0.24327654     0.09400
C1851       C  0.55128970  0.39178052  0.26457300     0.09800
C1852       C  0.54582761  0.39103484  0.30029758    -0.17500
C1853       C  0.54279452  0.40890377  0.31544750    -0.27900
C1854       C  0.54303701  0.42667693  0.29373732     0.18100
C1855       C  0.55914677  0.41209757  0.20588873     0.12100
C1856       C  0.55688237  0.37382481  0.25000910    -0.12200
H1857       H  0.54588770  0.37760550  0.31719788     0.12400
C1858       C  0.54030261  0.44644180  0.30896501    -0.23100
H1859       H  0.54835992  0.44061522  0.24049862     0.08000
C1860       C  0.54163271  0.39968694  0.18003368     0.04400
C1861       C  0.54835702  0.40297087  0.14466273    -0.20300
C1862       C  0.57208607  0.41873829  0.13450974    -0.12600
C1863       C  0.58992912  0.43005577  0.16053223     0.13100
C1864       C  0.58313677  0.42653377  0.19622973    -0.23000
C1865       C  0.51579757  0.38360442  0.18967045    -0.06100
H1866       H  0.53478232  0.39397226  0.12452869     0.14600
C1867       C  0.61584158  0.44646779  0.15184864    -0.16300
H1868       H  0.59650494  0.43555396  0.21660684     0.08900
H1869       H  0.54127278  0.45898585  0.28816230     0.06800
H1870       H  0.55465715  0.45722452  0.32838027     0.08000
H1871       H  0.52284349  0.43836647  0.32230036     0.07000
H1872       H  0.57530852  0.38356708  0.23967595     0.01900
H1873       H  0.54446279  0.36326196  0.22826542     0.02400
H1874       H  0.55534951  0.36088980  0.27057744     0.05900
H1875       H  0.50448106  0.37525595  0.16594410     0.04900
H1876       H  0.50971196  0.39438157  0.20346842    -0.00900
H1877       H  0.51321890  0.36878993  0.20732484     0.00600
H1878       H  0.62256950  0.46467934  0.16325672     0.04300
H1879       H  0.61939198  0.44867680  0.12309450     0.06200
H1880       H  0.62591927  0.43892869  0.16351437     0.07100
C1881       C  0.56701817  0.52744526  0.32988240    -0.22600
C1882       C  0.54343524  0.52086409  0.32427509     0.09400
C1883       C  0.52547054  0.50311474  0.34634514     0.09800
C1884       C  0.53137090  0.49207135  0.37272667    -0.17500
C1885       C  0.55483014  0.49800025  0.37805012    -0.27900
C1886       C  0.57295372  0.51620405  0.35638719     0.18100
C1887       C  0.53745522  0.53293103  0.29616630     0.12100
C1888       C  0.49991069  0.49577200  0.34234354    -0.12200
H1889       H  0.51728112  0.47822319  0.38898634     0.12400
C1890       C  0.59835039  0.52319008  0.35994406    -0.23100
H1891       H  0.58077516  0.54114916  0.31303271     0.08000
C1892       C  0.54180770  0.55643206  0.30100789     0.04400
C1893       C  0.53005864  0.56441727  0.27941466    -0.20300
C1894       C  0.51360111  0.54930435  0.25360747    -0.12600
C1895       C  0.51113686  0.52675563  0.24643069     0.13100
C1896       C  0.52354213  0.51913304  0.26729359    -0.23000
C1897       C  0.55737011  0.57238536  0.33063971    -0.06100
H1898       H  0.53192983  0.58166279  0.28505555     0.14600
C1899       C  0.49402120  0.50933308  0.21933452    -0.16300
H1900       H  0.52052216  0.50124354  0.26313715     0.08900
H1901       H  0.60997546  0.53713500  0.34023439     0.06800
H1902       H  0.59962169  0.50705884  0.35571543     0.08000
H1903       H  0.60509091  0.53079934  0.38663840     0.07000
H1904       H  0.49301618  0.48724895  0.31616094     0.01900
H1905       H  0.49846077  0.51191240  0.34490725     0.02400
H1906       H  0.48838567  0.48244954  0.36280428     0.05900
H1907       H  0.55840400  0.58996526  0.33119702     0.04900
H1908       H  0.57562507  0.57623581  0.32719858    -0.00900
H1909       H  0.55020259  0.56322801  0.35642864     0.00600
H1910       H  0.50385752  0.50559106  0.19928417     0.04300
H1911       H  0.48424572  0.51636123  0.20547555     0.06200
H1912       H  0.48081530  0.49207392  0.23242475     0.07100
C1913       C  0.47805353  0.47764811  0.51720339    -0.22600
C1914       C  0.46501248  0.46649529  0.54805892     0.09400
C1915       C  0.46104722  0.44374785  0.55795089     0.09800
C1916       C  0.47176744  0.43367933  0.53844981    -0.17500
C1917       C  0.48684847  0.44597667  0.50961418    -0.27900
C1918       C  0.48933327  0.46794566  0.49815126     0.18100
C1919       C  0.45934829  0.48070125  0.57264783     0.12100
C1920       C  0.44692813  0.43091922  0.59056920    -0.12200
H1921       H  0.46992689  0.41697452  0.54753956     0.12400
C1922       C  0.50528342  0.48283466  0.46804932    -0.23100
H1923       H  0.48104498  0.49509816  0.50953925     0.08000
C1924       C  0.47741963  0.49953482  0.59319802     0.04400
C1925       C  0.47178104  0.51227452  0.61686593    -0.20300
C1926       C  0.44839606  0.50678668  0.62126102    -0.12600
C1927       C  0.43018123  0.48780747  0.60059302     0.13100
C1928       C  0.43591857  0.47500165  0.57663747    -0.23000
C1929       C  0.50277241  0.50600252  0.59076683    -0.06100
H1930       H  0.48597543  0.52672579  0.63221206     0.14600
C1931       C  0.40487253  0.48138371  0.60266643    -0.16300
H1932       H  0.42208973  0.46050946  0.56084041     0.08900
H1933       H  0.51942802  0.50080822  0.47809302     0.06800
H1934       H  0.49475239  0.48550907  0.44784985     0.08000
H1935       H  0.51398758  0.47445269  0.45485428     0.07000
H1936       H  0.42859724  0.42699551  0.58785320     0.01900
H1937       H  0.45539142  0.44248511  0.61417608     0.02400
H1938       H  0.44582731  0.41348917  0.59490773     0.05900
H1939       H  0.51451857  0.52066643  0.60948646     0.04900
H1940       H  0.50972277  0.51237757  0.56370175    -0.00900
H1941       H  0.50372618  0.48990406  0.59715263     0.00600
H1942       H  0.39330976  0.46692280  0.58356742     0.04300
H1943       H  0.40399253  0.49755038  0.59644708     0.06200
H1944       H  0.39768621  0.47465090  0.62953760     0.07100
loop_ 
_geom_bond_atom_site_label_1 
_geom_bond_atom_site_label_2 
_geom_bond_distance 
_geom_bond_site_symmetry_2 
_ccdc_geom_bond_type 
Zr1           O2   2.438       .  S
Zr1           O3   2.466       .  S
Zr1           O4   2.439       .  S
Zr1           O7   2.445       .  S
Zr1           O9   2.372       .  S
Zr1          O10   2.378       .  S
Zr1          O11   2.430       .  S
Zr1          O12   2.414       .  S
O2           H58   0.990       .  S
O2           H66   0.990       .  S
O3           C23   1.292       .  A
O4           C25   1.284       .  A
O5          Zr15   2.431       .  S
O5           C24   1.284       .  A
O6          Zr14   2.392       .  S
O6           C25   1.278       .  A
O7           C24   1.287       .  A
O8          Zr16   2.427       .  S
O8           C23   1.282       .  A
O9          Zr14   2.378       .  S
O9          Zr16   2.357       .  S
O10         Zr15   2.369       .  S
O10         Zr16   2.383       .  S
O10          H45   0.966       .  S
O11         Zr14   2.390       .  S
O11         Zr31   2.425       .  S
O11          H48   0.967       .  S
O12         Zr15   2.376       .  S
O12         Zr31   2.418       .  S
Zr13         O38   2.436       .  S
Zr13         O32   2.401       .  S
Zr13         O40   2.442       .  S
Zr13         O28   2.480       .  S
Zr13         O19   2.407       .  S
Zr13         O20   2.393       .  S
Zr13         O21   2.375       .  S
Zr13         O22   2.392       .  S
Zr14         O33   2.438       .  S
Zr14         O26   2.436       .  S
Zr14         O27   2.405       .  S
Zr14         O20   2.390       .  S
Zr14         O21   2.377       .  S
Zr15         O17   2.435       .  S
Zr15         O39   2.438       .  S
Zr15         O41   2.383       .  S
Zr15         O19   2.398       .  S
Zr15         O22   2.380       .  S
Zr16         O42   2.434       .  S
Zr16         O43   2.434       .  S
Zr16         O18   2.438       .  S
Zr16         O19   2.388       .  S
Zr16         O20   2.401       .  S
O17          H54   0.990       .  S
O18          H49   0.990       .  S
O18          H63   0.990       .  S
O20          H46   0.966       .  S
O21         Zr31   2.364       .  S
O22         Zr31   2.362       .  S
O22          H47   0.966       .  S
C23        C1757   1.505       .  S
C24        C1798   1.489       .  S
C25        C1821   1.458       .  S
O26          H62   0.990       .  S
O27          C29   1.280       .  A
O28          C29   1.294       .  A
C29        C1917   1.490       .  S
O30         Zr31   2.435       .  S
O30          H59   0.990       .  S
Zr31         O34   2.436       .  S
Zr31         O35   2.437       .  S
Zr31         O36   2.487       .  S
O32          C37   1.281       .  A
O33          H50   0.990       .  S
O33          H65   0.990       .  S
O34          H51   0.990       .  S
O35          H55   0.990       .  S
O35          H64   0.990       .  S
O36          C37   1.294       .  A
C37        C1885   1.500       .  S
O38          H57   0.990       .  S
O38          H61   0.990       .  S
O39          H53   0.990       .  S
O39          H60   0.990       .  S
O40          C44   1.287       .  A
O41          C44   1.278       .  A
O42          H52   0.990       .  S
O43          H56   0.990       .  S
C44        C1853   1.464       .  S
Zr67         O68   2.437       .  S
Zr67         O69   2.467       .  S
Zr67         O70   2.439       .  S
Zr67         O73   2.433   1_554  S
Zr67         O75   2.372       .  S
Zr67         O76   2.380   1_554  S
Zr67         O77   2.428       .  S
Zr67         O78   2.413   1_554  S
O68         H124   0.990       .  S
O68         H132   0.990       .  S
O69          C89   1.292       .  A
O70          C91   1.285       .  A
O71         Zr81   2.450       .  S
O71          C90   1.288       .  A
O72         Zr80   2.392       .  S
O72          C91   1.279       .  A
O73          C90   1.285       .  A
O74         Zr82   2.442   1_554  S
O74          C89   1.285       .  A
O75         Zr80   2.381       .  S
O75         Zr82   2.362   1_554  S
O76         Zr81   2.360       .  S
O76         Zr82   2.383       .  S
O76         H111   0.965       .  S
O77         Zr80   2.385       .  S
O77         Zr97   2.427   1_554  S
O77         H114   0.967       .  S
O78         Zr81   2.376       .  S
O78         Zr97   2.411       .  S
Zr79        O104   2.437       .  S
Zr79         O98   2.409       .  S
Zr79        O106   2.443       .  S
Zr79         O94   2.496       .  S
Zr79         O85   2.416       .  S
Zr79         O86   2.397       .  S
Zr79         O87   2.375       .  S
Zr79         O88   2.395       .  S
Zr80         O99   2.435       .  S
Zr80         O92   2.437       .  S
Zr80         O93   2.400       .  S
Zr80         O86   2.393   1_554  S
Zr80         O87   2.379   1_554  S
Zr81         O83   2.436       .  S
Zr81        O105   2.438       .  S
Zr81        O107   2.385       .  S
Zr81         O85   2.403       .  S
Zr81         O88   2.394       .  S
Zr82        O108   2.435       .  S
Zr82        O109   2.434       .  S
Zr82         O84   2.440   1_556  S
Zr82         O85   2.391       .  S
Zr82         O86   2.408       .  S
O83         H120   0.990       .  S
O84         H115   0.990       .  S
O84         H129   0.990       .  S
O86         H112   0.966       .  S
O87         Zr97   2.370       .  S
O88         Zr97   2.357       .  S
O88         H113   0.965       .  S
C89        C1629   1.513       .  S
C90        C1661   1.497       .  S
C91        C1862   1.463       .  S
O92         H128   0.990       .  S
O93          C95   1.278   1_554  A
O94          C95   1.296       .  A
C95        C1734   1.489       .  S
O96         Zr97   2.435       .  S
O96         H125   0.990       .  S
Zr97        O100   2.436       .  S
Zr97        O101   2.439       .  S
Zr97        O102   2.479       .  S
O98         C103   1.281       .  A
O99         H116   0.990       .  S
O99         H131   0.990       .  S
O100        H117   0.990       .  S
O101        H121   0.990       .  S
O101        H130   0.990       .  S
O102        C103   1.292       .  A
C103       C1693   1.503       .  S
O104        H123   0.990       .  S
O104        H127   0.990       .  S
O105        H119   0.990       .  S
O105        H126   0.990       .  S
O106        C110   1.287       .  A
O107        C110   1.278       .  A
O108        H118   0.989       .  S
O109        H122   0.990       .  S
C110       C1830   1.468       .  S
Zr133       O134   2.436       .  S
Zr133       O135   2.448       .  S
Zr133       O136   2.450       .  S
Zr133       O139   2.454       .  S
Zr133       O141   2.375       .  S
Zr133       O142   2.373       .  S
Zr133       O143   2.428       .  S
Zr133       O144   2.416       .  S
O134        H190   0.990       .  S
O134        H198   0.990       .  S
O135        C155   1.287       .  A
O136        C157   1.287       .  A
O137       Zr147   2.427       .  S
O137        C156   1.284       .  A
O138       Zr146   2.391       .  S
O138        C157   1.278       .  A
O139        C156   1.290       .  A
O140       Zr148   2.433       .  S
O140        C155   1.285       .  A
O141       Zr146   2.382       .  S
O141       Zr148   2.361       .  S
O142       Zr147   2.362       .  S
O142       Zr148   2.372       .  S
O142        H177   0.965       .  S
O143       Zr146   2.390       .  S
O143       Zr163   2.426       .  S
O143        H180   0.967       .  S
O144       Zr147   2.382       .  S
O144       Zr163   2.417       .  S
Zr145       O170   2.438       .  S
Zr145       O164   2.411       .  S
Zr145       O172   2.436       .  S
Zr145       O160   2.474       .  S
Zr145       O151   2.408       .  S
Zr145       O152   2.397       .  S
Zr145       O153   2.376       .  S
Zr145       O154   2.394       .  S
Zr146       O165   2.435       .  S
Zr146       O158   2.437       .  S
Zr146       O159   2.400       .  S
Zr146       O152   2.389       .  S
Zr146       O153   2.377       .  S
Zr147       O149   2.436       .  S
Zr147       O171   2.438       .  S
Zr147       O173   2.388       .  S
Zr147       O151   2.396       .  S
Zr147       O154   2.385       .  S
Zr148       O174   2.436       .  S
Zr148       O175   2.434       .  S
Zr148       O150   2.438       .  S
Zr148       O151   2.390       .  S
Zr148       O152   2.407       .  S
O149        H186   0.990       .  S
O150        H181   0.990       .  S
O150        H195   0.990       .  S
O152        H178   0.966       .  S
O153       Zr163   2.369       .  S
O154       Zr163   2.362       .  S
O154        H179   0.966       .  S
C155       C1501   1.497       .  S
C156       C1533   1.490       .  S
C157       C1606   1.466       .  S
O158        H194   0.990       .  S
O159        C161   1.278       .  A
O160        C161   1.292       .  A
C161       C1894   1.483       .  S
O162       Zr163   2.435       .  S
O162        H191   0.990       .  S
Zr163       O166   2.435       .  S
Zr163       O167   2.437       .  S
Zr163       O168   2.490       .  S
O164        C169   1.281       .  A
O165        H182   0.990       .  S
O165        H197   0.990       .  S
O166        H183   0.990       .  S
O167        H187   0.990       .  S
O167        H196   0.990       .  S
O168        C169   1.294       .  A
C169       C1725   1.498       .  S
O170        H189   0.990       .  S
O170        H193   0.990       .  S
O171        H185   0.990       .  S
O171        H192   0.990       .  S
O172        C176   1.286       .  A
O173        C176   1.278       .  A
O174        H184   0.990       .  S
O175        H188   0.990       .  S
C176       C1565   1.459       .  S
Zr199       O200   2.436       .  S
Zr199       O201   2.435       .  S
Zr199       O202   2.444       .  S
Zr199       O205   2.448       .  S
Zr199       O207   2.373       .  S
Zr199       O208   2.377       .  S
Zr199       O209   2.422       .  S
Zr199       O210   2.407       .  S
O200        H256   0.990       .  S
O200        H264   0.990       .  S
O201        C221   1.284       .  A
O202        C223   1.285       .  A
O203       Zr213   2.439       .  S
O203        C222   1.285       .  A
O204       Zr212   2.394       .  S
O204        C223   1.279       .  A
O205        C222   1.290       .  A
O206       Zr214   2.458       .  S
O206        C221   1.290       .  A
O207       Zr212   2.380       .  S
O207       Zr214   2.357       .  S
O208       Zr213   2.370       .  S
O208       Zr214   2.374       .  S
O208        H243   0.965       .  S
O209       Zr212   2.388       .  S
O209       Zr229   2.421       .  S
O209        H246   0.967       .  S
O210       Zr213   2.385       .  S
O210       Zr229   2.409       .  S
Zr211       O236   2.436       .  S
Zr211       O230   2.413       .  S
Zr211       O238   2.438       .  S
Zr211       O226   2.473       .  S
Zr211       O217   2.414       .  S
Zr211       O218   2.401       .  S
Zr211       O219   2.377       .  S
Zr211       O220   2.387       .  S
Zr212       O231   2.436       .  S
Zr212       O224   2.438       .  S
Zr212       O225   2.408       .  S
Zr212       O218   2.397       .  S
Zr212       O219   2.371       .  S
Zr213       O215   2.435       .  S
Zr213       O237   2.436       .  S
Zr213       O239   2.398       .  S
Zr213       O217   2.399       .  S
Zr213       O220   2.388       .  S
Zr214       O240   2.435       .  S
Zr214       O241   2.435       .  S
Zr214       O216   2.437       .  S
Zr214       O217   2.396       .  S
Zr214       O218   2.419       .  S
O215        H252   0.990       .  S
O216        H247   0.990       .  S
O216        H261   0.990       .  S
O218        H244   0.965       .  S
O219       Zr229   2.376       .  S
O220       Zr229   2.360       .  S
O220        H245   0.965       .  S
C221       C1437   1.511       .  S
C222       C1469   1.500       .  S
C223       C1574   1.470       .  S
O224        H260   0.990       .  S
O225        C227   1.279       .  A
O226        C227   1.291       .  A
C227       C1702   1.492       .  S
O228       Zr229   2.436       .  S
O228        H257   0.990       .  S
Zr229       O232   2.436       .  S
Zr229       O233   2.441       .  S
Zr229       O234   2.468       .  S
O230        C235   1.283       .  A
O231        H248   0.990       .  S
O231        H263   0.990       .  S
O232        H249   0.990       .  S
O233        H253   0.990       .  S
O233        H262   0.989       .  S
O234        C235   1.290       .  A
C235       C1926   1.502       .  S
O236        H255   0.990       .  S
O236        H259   0.990       .  S
O237        H251   0.990       .  S
O237        H258   0.990       .  S
O238        C242   1.286       .  A
O239        C242   1.280       .  A
O240        H250   0.990       .  S
O241        H254   0.990       .  S
C242       C1597   1.466       .  S
Zr265       O266   2.437       .  S
Zr265       O267   2.408       .  S
Zr265       O268   2.481       .  S
Zr265       O271   2.438       .  S
Zr265       O273   2.371       .  S
Zr265       O274   2.396       .  S
Zr265       O275   2.397       .  S
Zr265       O276   2.414       .  S
O266        H322   0.990       .  S
O266        H330   0.990       .  S
O267        C287   1.280       .  A
O268        C289   1.292       .  A
O269       Zr279   2.392       .  S
O269        C288   1.279       .  A
O270       Zr278   2.404       .  S
O270        C289   1.278       .  A
O271        C288   1.286       .  A
O272       Zr280   2.467       .  S
O272        C287   1.290       .  A
O273       Zr278   2.372       .  S
O273       Zr280   2.366       .  S
O274       Zr279   2.389       .  S
O274       Zr280   2.367       .  S
O274        H309   0.966       .  S
O275       Zr278   2.392       .  S
O275       Zr295   2.409       .  S
O275        H312   0.966       .  S
O276       Zr279   2.397       .  S
O276       Zr295   2.390       .  S
Zr277       O302   2.436       .  S
Zr277       O296   2.452       .  S
Zr277       O304   2.450       .  S
Zr277       O292   2.445       .  S
Zr277       O283   2.407       .  S
Zr277       O284   2.425       .  S
Zr277       O285   2.373       .  S
Zr277       O286   2.382       .  S
Zr278       O297   2.440       .  S
Zr278       O290   2.434       .  S
Zr278       O291   2.382       .  S
Zr278       O284   2.391       .  S
Zr278       O285   2.377       .  S
Zr279       O281   2.435       .  S
Zr279       O303   2.438       .  S
Zr279       O305   2.430       .  S
Zr279       O283   2.379       .  S
Zr279       O286   2.373       .  S
Zr280       O306   2.435       .  S
Zr280       O307   2.435       .  S
Zr280       O282   2.437       .  S
Zr280       O283   2.408       .  S
Zr280       O284   2.420       .  S
O281        H318   0.990       .  S
O282        H313   0.990       .  S
O282        H327   0.990       .  S
O284        H310   0.967       .  S
O285       Zr295   2.355       .  S
O286       Zr295   2.383       .  S
O286        H311   0.966       .  S
C287       C1318   1.480       .  S
C288       C1373   1.466       .  S
C289       C1414   1.483       .  S
O290        H326   0.990       .  S
O291        C293   1.276       .  A
O292        C293   1.286       .  A
C293       C1341   1.459   1_554  S
O294       Zr295   2.436       .  S
O294        H323   0.990       .  S
Zr295       O298   2.435       .  S
Zr295       O299   2.437       .  S
Zr295       O300   2.432       .  S
O296        C301   1.289       .  A
O297        H314   0.990       .  S
O297        H329   0.990       .  S
O298        H315   0.990       .  S
O299        H319   0.990       .  S
O299        H328   0.990       .  S
O300        C301   1.283       .  A
C301       C1277   1.504       .  S
O302        H321   0.990       .  S
O302        H325   0.990       .  S
O303        H317   0.990       .  S
O303        H324   0.989       .  S
O304        C308   1.289       .  A
O305        C308   1.285       .  A
O306        H316   0.990       .  S
O307        H320   0.990       .  S
C308       C1542   1.493       .  S
Zr331       O332   2.437       .  S
Zr331       O333   2.410       .  S
Zr331       O334   2.489       .  S
Zr331       O337   2.438       .  S
Zr331       O339   2.373       .  S
Zr331       O340   2.397       .  S
Zr331       O341   2.396       .  S
Zr331       O342   2.411       .  S
O332        H388   0.990       .  S
O332        H396   0.990       .  S
O333        C353   1.280       .  A
O334        C355   1.294       .  A
O335       Zr345   2.399       .  S
O335        C354   1.281       .  A
O336       Zr344   2.401       .  S
O336        C355   1.278       .  A
O337        C354   1.287       .  A
O338       Zr346   2.469       .  S
O338        C353   1.290       .  A
O339       Zr344   2.373       .  S
O339       Zr346   2.370       .  S
O340       Zr345   2.389       .  S
O340       Zr346   2.367       .  S
O340        H375   0.966       .  S
O341       Zr344   2.393       .  S
O341       Zr361   2.412       .  S
O341        H378   0.966       .  S
O342       Zr345   2.402       .  S
O342       Zr361   2.392       .  S
Zr343       O368   2.435       .  S
Zr343       O362   2.445       .  S
Zr343       O370   2.440       .  S
Zr343       O358   2.445       .  S
Zr343       O349   2.412       .  S
Zr343       O350   2.424       .  S
Zr343       O351   2.368       .  S
Zr343       O352   2.376       .  S
Zr344       O363   2.437       .  S
Zr344       O356   2.435       .  S
Zr344       O357   2.388       .  S
Zr344       O350   2.389       .  S
Zr344       O351   2.377       .  S
Zr345       O347   2.435       .  S
Zr345       O369   2.438       .  S
Zr345       O371   2.447       .  S
Zr345       O349   2.385       .  S
Zr345       O352   2.365       .  S
Zr346       O372   2.436       .  S
Zr346       O373   2.437       .  S
Zr346       O348   2.438       .  S
Zr346       O349   2.413       .  S
Zr346       O350   2.420       .  S
O347        H384   0.990       .  S
O348        H379   0.990       .  S
O348        H393   0.990       .  S
O350        H376   0.967       .  S
O351       Zr361   2.355       .  S
O352       Zr361   2.374       .  S
O352        H377   0.964       .  S
C353       C1222   1.482       .  S
C354       C1350   1.465       .  S
C355       C1254   1.486       .  S
O356        H392   0.990       .  S
O357        C359   1.277       .  A
O358        C359   1.286       .  A
C359       C1382   1.461       .  S
O360       Zr361   2.435       .  S
O360        H389   0.990       .  S
Zr361       O364   2.436       .  S
Zr361       O365   2.439       .  S
Zr361       O366   2.445       .  S
O362        C367   1.286       .  A
O363        H380   0.990       .  S
O363        H395   0.990       .  S
O364        H381   0.990       .  S
O365        H385   0.990       .  S
O365        H394   0.990       .  S
O366        C367   1.286       .  A
C367       C1181   1.480       .  S
O368        H387   0.990       .  S
O368        H391   0.990       .  S
O369        H383   0.990       .  S
O369        H390   0.990       .  S
O370        C374   1.286       .  A
O371        C374   1.288       .  A
O372        H382   0.990       .  S
O373        H386   0.990       .  S
C374       C1478   1.501       .  S
Zr397       O398   2.436       .  S
Zr397       O399   2.411       .  S
Zr397       O400   2.472       .  S
Zr397       O403   2.442       .  S
Zr397       O405   2.376       .  S
Zr397       O406   2.391       .  S
Zr397       O407   2.399       .  S
Zr397       O408   2.411       .  S
O398        H454   0.990       .  S
O398        H462   0.990       .  S
O399        C419   1.281       .  A
O400        C421   1.291       .  A
O401       Zr411   2.393       .  S
O401        C420   1.280       .  A
O402       Zr410   2.407       .  S
O402        C421   1.280       .  A
O403        C420   1.287       .  A
O404       Zr412   2.490       .  S
O404        C419   1.294       .  A
O405       Zr410   2.378       .  S
O405       Zr412   2.366       .  S
O406       Zr411   2.380       .  S
O406       Zr412   2.364       .  S
O406        H441   0.965       .  S
O407       Zr410   2.386       .  S
O407       Zr427   2.405       .  S
O407        H444   0.966       .  S
O408       Zr411   2.394       .  S
O408       Zr427   2.390       .  S
Zr409       O434   2.437       .  S
Zr409       O428   2.454       .  S
Zr409       O436   2.459       .  S
Zr409       O424   2.447       .  S
Zr409       O415   2.414       .  S
Zr409       O416   2.430       .  S
Zr409       O417   2.378       .  S
Zr409       O418   2.378       .  S
Zr410       O429   2.438       .  S
Zr410       O422   2.436       .  S
Zr410       O423   2.389       .  S
Zr410       O416   2.392       .  S
Zr410       O417   2.380       .  S
Zr411       O413   2.433       .  S
Zr411       O435   2.439       .  S
Zr411       O437   2.425       .  S
Zr411       O415   2.381       .  S
Zr411       O418   2.373       .  S
Zr412       O438   2.435       .  S
Zr412       O439   2.436       .  S
Zr412       O414   2.438       .  S
Zr412       O415   2.417       .  S
Zr412       O416   2.427       .  S
O413        H450   0.989       .  S
O414        H445   0.990       .  S
O414        H459   0.990       .  S
O416        H442   0.966       .  S
O417       Zr427   2.359       .  S
O418       Zr427   2.382       .  S
O418        H443   0.966       .  S
C419       C1245   1.489       .  S
C420       C1117   1.474       .  S
C421       C1309   1.479       .  S
O422        H458   0.990       .  S
O423        C425   1.277       .  A
O424        C425   1.286       .  A
C425       C1158   1.460       .  S
O426       Zr427   2.436       .  S
O426        H455   0.990       .  S
Zr427       O430   2.434       .  S
Zr427       O431   2.437       .  S
Zr427       O432   2.440       .  S
O428        C433   1.288       .  A
O429        H446   0.990       .  S
O429        H461   0.990       .  S
O430        H447   0.990       .  S
O431        H451   0.990       .  S
O431        H460   0.990       .  S
O432        C433   1.286       .  A
C433       C1094   1.500       .  S
O434        H453   0.990       .  S
O434        H457   0.990       .  S
O435        H449   0.990       .  S
O435        H456   0.990       .  S
O436        C440   1.289       .  A
O437        C440   1.282       .  A
O438        H448   0.990       .  S
O439        H452   0.990       .  S
C440       C1789   1.494       .  S
Zr463       O464   2.437       .  S
Zr463       O465   2.413       .  S
Zr463       O466   2.474       .  S
Zr463       O469   2.429       .  S
Zr463       O471   2.373       .  S
Zr463       O472   2.395       .  S
Zr463       O473   2.397       .  S
Zr463       O474   2.407       .  S
O464        H520   0.990       .  S
O464        H528   0.990       .  S
O465        C485   1.280       .  A
O466        C487   1.291       .  A
O467       Zr477   2.390       .  S
O467        C486   1.279       .  A
O468       Zr476   2.398       .  S
O468        C487   1.278       .  A
O469        C486   1.285       .  A
O470       Zr478   2.478       .  S
O470        C485   1.291       .  A
O471       Zr476   2.378       .  S
O471       Zr478   2.368       .  S
O472       Zr477   2.390       .  S
O472       Zr478   2.367       .  S
O472        H507   0.966       .  S
O473       Zr476   2.393       .  S
O473       Zr493   2.406       .  S
O473        H510   0.967       .  S
O474       Zr477   2.396       .  S
O474       Zr493   2.386       .  S
Zr475       O500   2.436       .  S
Zr475       O494   2.456       .  S
Zr475       O502   2.456       .  S
Zr475       O490   2.450       .  S
Zr475       O481   2.417       .  S
Zr475       O482   2.428       .  S
Zr475       O483   2.376       .  S
Zr475       O484   2.378       .  S
Zr476       O495   2.440       .  S
Zr476       O488   2.435       .  S
Zr476       O489   2.388       .  S
Zr476       O482   2.389       .  S
Zr476       O483   2.379       .  S
Zr477       O479   2.436       .  S
Zr477       O501   2.438       .  S
Zr477       O503   2.435       .  S
Zr477       O481   2.380       .  S
Zr477       O484   2.370       .  S
Zr478       O504   2.435       .  S
Zr478       O505   2.435       .  S
Zr478       O480   2.440       .  S
Zr478       O481   2.414       .  S
Zr478       O482   2.424       .  S
O479        H516   0.990       .  S
O480        H511   0.990       .  S
O480        H525   0.989       .  S
O482        H508   0.967       .  S
O483       Zr493   2.360       .  S
O484       Zr493   2.383       .  S
O484        H509   0.965       .  S
C485       C1405   1.487       .  S
C486       C1149   1.462   1_556  S
C487       C1213   1.479       .  S
O488        H524   0.990       .  S
O489        C491   1.276       .  A
O490        C491   1.287       .  A
C491       C1126   1.464       .  S
O492       Zr493   2.435       .  S
O492        H521   0.990       .  S
Zr493       O496   2.435       .  S
Zr493       O497   2.438       .  S
Zr493       O498   2.427       .  S
O494        C499   1.290       .  A
O495        H512   0.990       .  S
O495        H527   0.990       .  S
O496        H513   0.990       .  S
O497        H517   0.990       .  S
O497        H526   0.990       .  S
O498        C499   1.283       .  A
C499       C1053   1.490       .  S
O500        H519   0.990       .  S
O500        H523   0.990       .  S
O501        H515   0.990       .  S
O501        H522   0.990       .  S
O502        C506   1.289       .  A
O503        C506   1.285       .  A
O504        H514   0.989       .  S
O505        H518   0.990       .  S
C506       C1670   1.495       .  S
Zr529       O530   2.435       .  S
Zr529       O531   2.413       .  S
Zr529       O532   2.490       .  S
Zr529       O535   2.449       .  S
Zr529       O537   2.373       .  S
Zr529       O538   2.390       .  S
Zr529       O539   2.405       .  S
Zr529       O540   2.423       .  S
O530        H586   0.990       .  S
O530        H594   0.990       .  S
O531        C551   1.281       .  A
O532        C553   1.295       .  A
O533       Zr543   2.408       .  S
O533        C552   1.282       .  A
O534       Zr542   2.404       .  S
O534        C553   1.279       .  A
O535        C552   1.288       .  A
O536       Zr544   2.492       .  S
O536        C551   1.294       .  A
O537       Zr542   2.378       .  S
O537       Zr544   2.369       .  S
O538       Zr543   2.382       .  S
O538       Zr544   2.346       .  S
O538        H573   0.964       .  S
O539       Zr542   2.395       .  S
O539       Zr559   2.412       .  S
O539        H576   0.967       .  S
O540       Zr543   2.402       .  S
O540       Zr559   2.402       .  S
Zr541       O566   2.436       .  S
Zr541       O560   2.449       .  S
Zr541       O568   2.459       .  S
Zr541       O556   2.466       .  S
Zr541       O547   2.416       .  S
Zr541       O548   2.430       .  S
Zr541       O549   2.373       .  S
Zr541       O550   2.388       .  S
Zr542       O561   2.437       .  S
Zr542       O554   2.436       .  S
Zr542       O555   2.400       .  S
Zr542       O548   2.391       .  S
Zr542       O549   2.376       .  S
Zr543       O545   2.434       .  S
Zr543       O567   2.438       .  S
Zr543       O569   2.444       .  S
Zr543       O547   2.388       .  S
Zr543       O550   2.376       .  S
Zr544       O570   2.436       .  S
Zr544       O571   2.435       .  S
Zr544       O546   2.438       .  S
Zr544       O547   2.421       .  S
Zr544       O548   2.427       .  S
O545        H582   0.990       .  S
O546        H577   0.990       .  S
O546        H591   0.990       .  S
O548        H574   0.966       .  S
O549       Zr559   2.358       .  S
O550       Zr559   2.378       .  S
O550        H575   0.967       .  S
C551       C1021   1.490       .  S
C552        C934   1.464   1_554  S
C553        C998   1.493       .  S
O554        H590   0.990       .  S
O555        C557   1.279       .  A
O556        C557   1.290       .  A
C557        C966   1.481       .  S
O558       Zr559   2.434       .  S
O558        H587   0.990       .  S
Zr559       O562   2.436       .  S
Zr559       O563   2.437       .  S
Zr559       O564   2.449       .  S
O560        C565   1.289       .  A
O561        H578   0.990       .  S
O561        H593   0.990       .  S
O562        H579   0.990       .  S
O563        H583   0.990       .  S
O563        H592   0.989       .  S
O564        C565   1.286       .  A
C565       C1085   1.512       .  S
O566        H585   0.990       .  S
O566        H589   0.990       .  S
O567        H581   0.990       .  S
O567        H588   0.990       .  S
O568        C572   1.291       .  A
O569        C572   1.287       .  A
O570        H580   0.990       .  S
O571        H584   0.990       .  S
C572       C1638   1.505       .  S
Zr595       O596   2.437       .  S
Zr595       O597   2.428       .  S
Zr595       O598   2.495       .  S
Zr595       O601   2.466       .  S
Zr595       O603   2.383       .  S
Zr595       O604   2.393       .  S
Zr595       O605   2.405       .  S
Zr595       O606   2.416       .  S
O596        H652   0.990       .  S
O596        H660   0.990       .  S
O597        C617   1.284       .  A
O598        C619   1.296       .  A
O599       Zr609   2.384       .  S
O599        C618   1.278       .  A
O600       Zr608   2.396       .  S
O600        C619   1.277       .  A
O601        C618   1.291       .  A
O602       Zr610   2.456       .  S
O602        C617   1.287       .  A
O603       Zr608   2.389       .  S
O603       Zr610   2.379       .  S
O604       Zr609   2.391       .  S
O604       Zr610   2.364       .  S
O604        H639   0.967       .  S
O605       Zr608   2.382       .  S
O605       Zr625   2.399       .  S
O605        H642   0.966       .  S
O606       Zr609   2.400       .  S
O606       Zr625   2.395       .  S
Zr607       O632   2.439       .  S
Zr607       O626   2.451       .  S
Zr607       O634   2.452       .  S
Zr607       O622   2.439       .  S
Zr607       O613   2.407       .  S
Zr607       O614   2.416       .  S
Zr607       O615   2.384       .  S
Zr607       O616   2.381       .  S
Zr608       O627   2.438       .  S
Zr608       O620   2.437       .  S
Zr608       O621   2.393       .  S
Zr608       O614   2.390       .  S
Zr608       O615   2.379       .  S
Zr609       O611   2.435       .  S
Zr609       O633   2.436       .  S
Zr609       O635   2.431       .  S
Zr609       O613   2.381       .  S
Zr609       O616   2.372       .  S
Zr610       O636   2.437       .  S
Zr610       O637   2.437       .  S
Zr610       O612   2.437       .  S
Zr610       O613   2.405       .  S
Zr610       O614   2.406       .  S
O611        H648   0.990       .  S
O612        H643   0.990       .  S
O612        H657   0.990       .  S
O614        H640   0.965       .  S
O615       Zr625   2.377       .  S
O616       Zr625   2.379       .  S
O616        H641   0.966       .  S
C617        C893   1.488       .  S
C618        C957   1.481       .  S
C619        C861   1.491       .  S
O620        H656   0.991       .  S
O621        C623   1.278       .  A
O622        C623   1.286       .  A
C623        C925   1.469       .  S
O624       Zr625   2.435       .  S
O624        H653   0.990       .  S
Zr625       O628   2.436       .  S
Zr625       O629   2.437       .  S
Zr625       O630   2.427       .  S
O626        C631   1.287       .  A
O627        H644   0.990       .  S
O627        H659   0.990       .  S
O628        H645   0.990       .  S
O629        H649   0.990       .  S
O629        H658   0.990       .  S
O630        C631   1.283       .  A
C631       C1062   1.478       .  S
O632        H651   0.990       .  S
O632        H655   0.990       .  S
O633        H647   0.990       .  S
O633        H654   0.990       .  S
O634        C638   1.288       .  A
O635        C638   1.283       .  A
O636        H646   0.990       .  S
O637        H650   0.990       .  S
C638       C1766   1.497       .  S
Zr661       O662   2.435       .  S
Zr661       O663   2.412       .  S
Zr661       O664   2.485       .  S
Zr661       O667   2.431       .  S
Zr661       O669   2.366       .  S
Zr661       O670   2.393       .  S
Zr661       O671   2.396       .  S
Zr661       O672   2.414       .  S
O662        H718   0.990       .  S
O662        H726   0.990       .  S
O663        C683   1.279       .  A
O664        C685   1.293       .  A
O665       Zr675   2.408       .  S
O665        C684   1.282       .  A
O666       Zr674   2.390       .  S
O666        C685   1.276       .  A
O667        C684   1.286       .  A
O668       Zr676   2.477       .  S
O668        C683   1.293       .  A
O669       Zr674   2.377       .  S
O669       Zr676   2.368       .  S
O670       Zr675   2.392       .  S
O670       Zr676   2.359       .  S
O670        H705   0.966       .  S
O671       Zr674   2.387       .  S
O671       Zr691   2.407       .  S
O671        H708   0.966       .  S
O672       Zr675   2.399       .  S
O672       Zr691   2.390       .  S
Zr673       O698   2.434       .  S
Zr673       O692   2.453       .  S
Zr673       O700   2.438       .  S
Zr673       O688   2.428       .  S
Zr673       O679   2.412       .  S
Zr673       O680   2.415       .  S
Zr673       O681   2.379       .  S
Zr673       O682   2.377       .  S
Zr674       O693   2.438       .  S
Zr674       O686   2.436       .  S
Zr674       O687   2.377       .  S
Zr674       O680   2.389       .  S
Zr674       O681   2.382       .  S
Zr675       O677   2.436       .  S
Zr675       O699   2.437       .  S
Zr675       O701   2.445       .  S
Zr675       O679   2.387       .  S
Zr675       O682   2.375       .  S
Zr676       O702   2.436       .  S
Zr676       O703   2.438       .  S
Zr676       O678   2.437       .  S
Zr676       O679   2.414       .  S
Zr676       O680   2.417       .  S
O677        H714   0.990       .  S
O678        H709   0.990       .  S
O678        H723   0.990       .  S
O680        H706   0.965       .  S
O681       Zr691   2.371       .  S
O682       Zr691   2.380       .  S
O682        H707   0.965       .  S
C683        C989   1.508       .  S
C684        C838   1.468       .  S
C685        C902   1.481       .  S
O686        H722   0.990       .  S
O687        C689   1.275       .  A
O688        C689   1.282       .  A
C689        C797   1.458       .  S
O690       Zr691   2.435       .  S
O690        H719   0.990       .  S
Zr691       O694   2.436       .  S
Zr691       O695   2.439       .  S
Zr691       O696   2.428       .  S
O692        C697   1.287       .  A
O693        H710   0.990       .  S
O693        H725   0.990       .  S
O694        H711   0.990       .  S
O695        H715   0.990       .  S
O695        H724   0.989       .  S
O696        C697   1.284       .  A
C697       C1190   1.488       .  S
O698        H717   0.990       .  S
O698        H721   0.989       .  S
O699        H713   0.990       .  S
O699        H720   0.990       .  S
O700        C704   1.285       .  A
O701        C704   1.287       .  A
O702        H712   0.990       .  S
O703        H716   0.990       .  S
C704       C1510   1.494       .  S
Zr727       O728   2.435       .  S
Zr727       O729   2.409       .  S
Zr727       O730   2.479       .  S
Zr727       O733   2.453       .  S
Zr727       O735   2.374       .  S
Zr727       O736   2.383       .  S
Zr727       O737   2.408       .  S
Zr727       O738   2.415       .  S
O728        H784   0.990       .  S
O728        H792   0.990       .  S
O729        C749   1.282       .  A
O730        C751   1.293       .  A
O731       Zr741   2.383       .  S
O731        C750   1.277       .  A
O732       Zr740   2.407       .  S
O732        C751   1.279       .  A
O733        C750   1.289       .  A
O734       Zr742   2.488       .  S
O734        C749   1.294       .  A
O735       Zr740   2.374       .  S
O735       Zr742   2.362       .  S
O736       Zr741   2.382       .  S
O736       Zr742   2.351       .  S
O736        H771   0.958       .  S
O737       Zr740   2.392       .  S
O737       Zr757   2.410       .  S
O737        H774   0.967       .  S
O738       Zr741   2.398       .  S
O738       Zr757   2.398       .  S
Zr739       O764   2.436       .  S
Zr739       O758   2.434       .  S
Zr739       O766   2.464       .  S
Zr739       O754   2.445       .  S
Zr739       O745   2.406       .  S
Zr739       O746   2.424       .  S
Zr739       O747   2.380       .  S
Zr739       O748   2.382       .  S
Zr740       O759   2.440       .  S
Zr740       O752   2.435       .  S
Zr740       O753   2.389       .  S
Zr740       O746   2.392       .  S
Zr740       O747   2.374       .  S
Zr741       O743   2.435       .  S
Zr741       O765   2.437       .  S
Zr741       O767   2.425       .  S
Zr741       O745   2.383       .  S
Zr741       O748   2.366       .  S
Zr742       O768   2.435       .  S
Zr742       O769   2.435       .  S
Zr742       O744   2.436       .  S
Zr742       O745   2.420       .  S
Zr742       O746   2.418       .  S
O743        H780   0.990       .  S
O744        H775   0.990       .  S
O744        H789   0.990       .  S
O746        H772   0.967       .  S
O747       Zr757   2.362       .  S
O748       Zr757   2.381       .  S
O748        H773   0.966       .  S
C749        C870   1.501       .  S
C750        C806   1.460       .  S
C751       C1030   1.483       .  S
O752        H788   0.990   1_556  S
O753        C755   1.278   1_556  A
O754        C755   1.286   1_556  A
C755        C829   1.476       .  S
O756       Zr757   2.436       .  S
O756        H785   0.990       .  S
Zr757       O760   2.436       .  S
Zr757       O761   2.436       .  S
Zr757       O762   2.444       .  S
O758        C763   1.285       .  A
O759        H776   0.991       .  S
O759        H791   0.990       .  S
O760        H777   0.990       .  S
O761        H781   0.990       .  S
O761        H790   0.989       .  S
O762        C763   1.287       .  A
C763       C1286   1.482       .  S
O764        H783   0.990       .  S
O764        H787   0.990       .  S
O765        H779   0.990       .  S
O765        H786   0.990       .  S
O766        C770   1.290       .  A
O767        C770   1.283       .  A
O768        H778   0.990       .  S
O769        H782   0.990       .  S
C770       C1446   1.505       .  S
C793        C794   1.402       .  A
C793        C798   1.401       .  A
C793        H803   1.084       .  S
C794        C799   1.466       .  S
C794        C795   1.408       .  A
C795        C796   1.392       .  A
C795        C800   1.509       .  S
C796        C797   1.403       .  A
C796        H801   1.085       .  S
C797        C798   1.411       .  A
C798        C802   1.508       .  S
C799        C804   1.413       .  A
C799        C808   1.392       .  A
C800        H816   1.109       .  S
C800        H817   1.111       .  S
C800        H818   1.111       .  S
C802        H813   1.111       .  S
C802        H814   1.111       .  S
C802        H815   1.110       .  S
C804        C805   1.403       .  A
C804        C809   1.506       .  S
C805        C806   1.399       .  A
C805        H810   1.084       .  S
C806        C807   1.418       .  A
C807        C808   1.388       .  A
C807        C811   1.508       .  S
C808        H812   1.085       .  S
C809        H819   1.111       .  S
C809        H820   1.109       .  S
C809        H821   1.110       .  S
C811        H822   1.110       .  S
C811        H823   1.103       .  S
C811        H824   1.111       .  S
C825        C826   1.404       .  A
C825        C830   1.405       .  A
C825        H835   1.084       .  S
C826        C831   1.468       .  S
C826        C827   1.402       .  A
C827        C828   1.393       .  A
C827        C832   1.508       .  S
C828        C829   1.409       .  A
C828        H833   1.084       .  S
C829        C830   1.413       .  A
C830        C834   1.506       .  S
C831        C836   1.406       .  A
C831        C840   1.399       .  A
C832        H848   1.110       .  S
C832        H849   1.110       .  S
C832        H850   1.111       .  S
C834        H845   1.110       .  S
C834        H846   1.111       .  S
C834        H847   1.110       .  S
C836        C837   1.399       .  A
C836        C841   1.506       .  S
C837        C838   1.405       .  A
C837        H842   1.084       .  S
C838        C839   1.415       .  A
C839        C840   1.399       .  A
C839        C843   1.506       .  S
C840        H844   1.084       .  S
C841        H851   1.111       .  S
C841        H852   1.110       .  S
C841        H853   1.110       .  S
C843        H854   1.109       .  S
C843        H855   1.109       .  S
C843        H856   1.111       .  S
C857        C858   1.407       .  A
C857        C862   1.411   1_565  A
C857        H867   1.084       .  S
C858        C863   1.499       .  S
C858        C859   1.411   1_565  A
C859        C860   1.409       .  A
C859        C864   1.506       .  S
C860        C861   1.409       .  A
C860        H865   1.084       .  S
C861        C862   1.416       .  A
C862        C866   1.503       .  S
C863        C868   1.412       .  A
C863        C872   1.408       .  A
C864        H880   1.110       .  S
C864        H881   1.111       .  S
C864        H882   1.111       .  S
C866        H877   1.111       .  S
C866        H878   1.110       .  S
C866        H879   1.105       .  S
C868        C869   1.403       .  A
C868        C873   1.509   1_565  S
C869        C870   1.408       .  A
C869        H874   1.084       .  S
C870        C871   1.420       .  A
C871        C872   1.418       .  A
C871        C875   1.505       .  S
C872        H876   1.084       .  S
C873        H883   1.111   1_545  S
C873        H884   1.109       .  S
C873        H885   1.110       .  S
C875        H886   1.111       .  S
C875        H887   1.110       .  S
C875        H888   1.110       .  S
C889        C890   1.405       .  A
C889        C894   1.413       .  A
C889        H899   1.084       .  S
C890        C895   1.492   1_545  S
C890        C891   1.412       .  A
C891        C892   1.402       .  A
C891        C896   1.507   1_545  S
C892        C893   1.402       .  A
C892        H897   1.080       .  S
C893        C894   1.417       .  A
C894        C898   1.505       .  S
C895        C900   1.412       .  A
C895        C904   1.403       .  A
C896        H912   1.110       .  S
C896        H913   1.110       .  S
C896        H914   1.111       .  S
C898        H909   1.110       .  S
C898        H910   1.111       .  S
C898        H911   1.110       .  S
C900        C901   1.410       .  A
C900        C905   1.506       .  S
C901        C902   1.406       .  A
C901        H906   1.084       .  S
C902        C903   1.415       .  A
C903        C904   1.407       .  A
C903        C907   1.507       .  S
C904        H908   1.084   1_565  S
C905        H915   1.110       .  S
C905        H916   1.110   1_565  S
C905        H917   1.111       .  S
C907        H918   1.111       .  S
C907        H919   1.107       .  S
C907        H920   1.110       .  S
C921        C922   1.398       .  A
C921        C926   1.396       .  A
C921        H931   1.084       .  S
C922        C927   1.475       .  S
C922        C923   1.413       .  A
C923        C924   1.402       .  A
C923        C928   1.506       .  S
C924        C925   1.402       .  A
C924        H929   1.084       .  S
C925        C926   1.415       .  A
C926        C930   1.507       .  S
C927        C932   1.407       .  A
C927        C936   1.407       .  A
C928        H944   1.109       .  S
C928        H945   1.111       .  S
C928        H946   1.111       .  S
C930        H941   1.109       .  S
C930        H942   1.111       .  S
C930        H943   1.110       .  S
C932        C933   1.395       .  A
C932        C937   1.508       .  S
C933        C934   1.404       .  A
C933        H938   1.085       .  S
C934        C935   1.408       .  A
C935        C936   1.404       .  A
C935        C939   1.505       .  S
C936        H940   1.084       .  S
C937        H947   1.111       .  S
C937        H948   1.109       .  S
C937        H949   1.110       .  S
C939        H950   1.111       .  S
C939        H951   1.108       .  S
C939        H952   1.110       .  S
C953        C954   1.404       .  A
C953        C958   1.405       .  A
C953        H963   1.084       .  S
C954        C959   1.479       .  S
C954        C955   1.406       .  A
C955        C956   1.401       .  A
C955        C960   1.507       .  S
C956        C957   1.410       .  A
C956        H961   1.085       .  S
C957        C958   1.414       .  A
C958        C962   1.507       .  S
C959        C964   1.405       .  A
C959        C968   1.406       .  A
C960        H976   1.110       .  S
C960        H977   1.110       .  S
C960        H978   1.111       .  S
C962        H973   1.111       .  S
C962        H974   1.110       .  S
C962        H975   1.110       .  S
C964        C965   1.398       .  A
C964        C969   1.507       .  S
C965        C966   1.409       .  A
C965        H970   1.085       .  S
C966        C967   1.412       .  A
C967        C968   1.409       .  A
C967        C971   1.504       .  S
C968        H972   1.084       .  S
C969        H979   1.111       .  S
C969        H980   1.110       .  S
C969        H981   1.110       .  S
C971        H982   1.111       .  S
C971        H983   1.110       .  S
C971        H984   1.110       .  S
C985        C986   1.401       .  A
C985        C990   1.407       .  A
C985        H995   1.084       .  S
C986        C991   1.501       .  S
C986        C987   1.415       .  A
C987        C988   1.413       .  A
C987        C992   1.506       .  S
C988        C989   1.410       .  A
C988        H993   1.083       .  S
C989        C990   1.429       .  A
C990        C994   1.511       .  S
C991        C996   1.419       .  A
C991       C1000   1.402   1_565  A
C992       H1008   1.108       .  S
C992       H1009   1.110       .  S
C992       H1010   1.111       .  S
C994       H1005   1.108       .  S
C994       H1006   1.111       .  S
C994       H1007   1.107       .  S
C996        C997   1.413   1_565  A
C996       C1001   1.507       .  S
C997        C998   1.404       .  A
C997       H1002   1.078       .  S
C998        C999   1.418       .  A
C999       C1000   1.405       .  A
C999       C1003   1.506       .  S
C1000      H1004   1.084       .  S
C1001      H1011   1.111       .  S
C1001      H1012   1.108       .  S
C1001      H1013   1.110       .  S
C1003      H1014   1.110       .  S
C1003      H1015   1.109       .  S
C1003      H1016   1.111       .  S
C1017      C1018   1.401   1_554  A
C1017      C1022   1.404       .  A
C1017      H1027   1.085   1_545  S
C1018      C1023   1.496       .  S
C1018      C1019   1.414       .  A
C1019      C1020   1.416   1_556  A
C1019      C1024   1.505       .  S
C1020      C1021   1.409       .  A
C1020      H1025   1.084   1_554  S
C1021      C1022   1.416       .  A
C1022      C1026   1.504       .  S
C1023      C1028   1.415       .  A
C1023      C1032   1.403   1_545  A
C1024      H1040   1.110       .  S
C1024      H1041   1.110       .  S
C1024      H1042   1.111       .  S
C1026      H1037   1.111       .  S
C1026      H1038   1.110       .  S
C1026      H1039   1.108       .  S
C1028      C1029   1.410   1_545  A
C1028      C1033   1.506       .  S
C1029      C1030   1.405       .  A
C1029      H1034   1.084       .  S
C1030      C1031   1.416       .  A
C1031      C1032   1.409       .  A
C1031      C1035   1.506       .  S
C1032      H1036   1.084       .  S
C1033      H1043   1.111       .  S
C1033      H1044   1.110       .  S
C1033      H1045   1.110       .  S
C1035      H1046   1.110       .  S
C1035      H1047   1.110       .  S
C1035      H1048   1.110       .  S
C1049      C1050   1.402       .  A
C1049      C1054   1.407       .  A
C1049      H1059   1.084       .  S
C1050      C1055   1.489       .  S
C1050      C1051   1.412       .  A
C1051      C1052   1.408       .  A
C1051      C1056   1.506       .  S
C1052      C1053   1.405       .  A
C1052      H1057   1.082       .  S
C1053      C1054   1.420       .  A
C1054      C1058   1.508       .  S
C1055      C1060   1.413       .  A
C1055      C1064   1.404       .  A
C1056      H1072   1.110       .  S
C1056      H1073   1.108       .  S
C1056      H1074   1.111       .  S
C1058      H1069   1.111       .  S
C1058      H1070   1.109       .  S
C1058      H1071   1.111       .  S
C1060      C1061   1.407       .  A
C1060      C1065   1.506       .  S
C1061      C1062   1.403       .  A
C1061      H1066   1.084       .  S
C1062      C1063   1.415       .  A
C1063      C1064   1.406       .  A
C1063      C1067   1.508       .  S
C1064      H1068   1.084       .  S
C1065      H1075   1.111       .  S
C1065      H1076   1.110       .  S
C1065      H1077   1.108       .  S
C1067      H1078   1.111       .  S
C1067      H1079   1.109       .  S
C1067      H1080   1.111       .  S
C1081      C1082   1.401       .  A
C1081      C1086   1.409       .  A
C1081      H1091   1.084       .  S
C1082      C1087   1.499       .  S
C1082      C1083   1.412       .  A
C1083      C1084   1.412       .  A
C1083      C1088   1.506       .  S
C1084      C1085   1.414       .  A
C1084      H1089   1.083       .  S
C1085      C1086   1.427       .  A
C1086      C1090   1.509       .  S
C1087      C1092   1.414       .  A
C1087      C1096   1.404       .  A
C1088      H1104   1.109       .  S
C1088      H1105   1.110       .  S
C1088      H1106   1.111       .  S
C1090      H1101   1.110       .  S
C1090      H1102   1.111       .  S
C1090      H1103   1.110       .  S
C1092      C1093   1.409       .  A
C1092      C1097   1.507       .  S
C1093      C1094   1.409       .  A
C1093      H1098   1.084       .  S
C1094      C1095   1.420       .  A
C1095      C1096   1.412       .  A
C1095      C1099   1.507       .  S
C1096      H1100   1.084       .  S
C1097      H1107   1.111       .  S
C1097      H1108   1.109       .  S
C1097      H1109   1.111       .  S
C1099      H1110   1.110       .  S
C1099      H1111   1.110       .  S
C1099      H1112   1.111       .  S
C1113      C1114   1.404       .  A
C1113      C1118   1.406       .  A
C1113      H1123   1.084       .  S
C1114      C1119   1.471       .  S
C1114      C1115   1.405       .  A
C1115      C1116   1.394       .  A
C1115      C1120   1.509       .  S
C1116      C1117   1.407       .  A
C1116      H1121   1.085       .  S
C1117      C1118   1.414       .  A
C1118      C1122   1.507       .  S
C1119      C1124   1.405       .  A
C1119      C1128   1.404       .  A
C1120      H1136   1.110       .  S
C1120      H1137   1.109       .  S
C1120      H1138   1.111       .  S
C1122      H1133   1.110       .  S
C1122      H1134   1.110       .  S
C1122      H1135   1.110       .  S
C1124      C1125   1.397       .  A
C1124      C1129   1.508       .  S
C1125      C1126   1.406       .  A
C1125      H1130   1.085       .  S
C1126      C1127   1.411       .  A
C1127      C1128   1.403       .  A
C1127      C1131   1.506       .  S
C1128      H1132   1.084       .  S
C1129      H1139   1.111       .  S
C1129      H1140   1.110       .  S
C1129      H1141   1.109       .  S
C1131      H1142   1.110       .  S
C1131      H1143   1.107       .  S
C1131      H1144   1.110       .  S
C1145      C1146   1.397       .  A
C1145      C1150   1.394       .  A
C1145      H1155   1.085       .  S
C1146      C1151   1.467       .  S
C1146      C1147   1.412       .  A
C1147      C1148   1.399       .  A
C1147      C1152   1.507       .  S
C1148      C1149   1.401       .  A
C1148      H1153   1.084       .  S
C1149      C1150   1.415       .  A
C1150      C1154   1.508       .  S
C1151      C1156   1.414       .  A
C1151      C1160   1.394       .  A
C1152      H1168   1.110       .  S
C1152      H1169   1.108       .  S
C1152      H1170   1.111       .  S
C1154      H1165   1.111       .  S
C1154      H1166   1.109       .  S
C1154      H1167   1.110       .  S
C1156      C1157   1.403       .  A
C1156      C1161   1.508       .  S
C1157      C1158   1.399       .  A
C1157      H1162   1.084       .  S
C1158      C1159   1.416       .  A
C1159      C1160   1.393       .  A
C1159      C1163   1.509       .  S
C1160      H1164   1.085       .  S
C1161      H1171   1.111       .  S
C1161      H1172   1.110       .  S
C1161      H1173   1.108       .  S
C1163      H1174   1.110       .  S
C1163      H1175   1.108       .  S
C1163      H1176   1.110       .  S
C1177      C1178   1.403       .  A
C1177      C1182   1.407       .  A
C1177      H1187   1.084       .  S
C1178      C1183   1.491       .  S
C1178      C1179   1.414       .  A
C1179      C1180   1.408       .  A
C1179      C1184   1.506       .  S
C1180      C1181   1.403       .  A
C1180      H1185   1.084       .  S
C1181      C1182   1.416       .  A
C1182      C1186   1.508       .  S
C1183      C1188   1.412       .  A
C1183      C1192   1.405       .  A
C1184      H1200   1.110       .  S
C1184      H1201   1.110       .  S
C1184      H1202   1.111       .  S
C1186      H1197   1.111       .  S
C1186      H1198   1.110       .  S
C1186      H1199   1.107       .  S
C1188      C1189   1.404       .  A
C1188      C1193   1.507       .  S
C1189      C1190   1.405       .  A
C1189      H1194   1.084       .  S
C1190      C1191   1.418       .  A
C1191      C1192   1.412       .  A
C1191      C1195   1.507       .  S
C1192      H1196   1.084       .  S
C1193      H1203   1.111       .  S
C1193      H1204   1.110       .  S
C1193      H1205   1.110       .  S
C1195      H1206   1.110       .  S
C1195      H1207   1.111       .  S
C1195      H1208   1.111       .  S
C1209      C1210   1.401   1_655  A
C1209      C1214   1.404       .  A
C1209      H1219   1.084       .  S
C1210      C1215   1.488       .  S
C1210      C1211   1.414       .  A
C1211      C1212   1.408   1_455  A
C1211      C1216   1.507       .  S
C1212      C1213   1.404       .  A
C1212      H1217   1.079       .  S
C1213      C1214   1.415       .  A
C1214      C1218   1.507       .  S
C1215      C1220   1.412       .  A
C1215      C1224   1.403       .  A
C1216      H1232   1.110       .  S
C1216      H1233   1.109       .  S
C1216      H1234   1.111       .  S
C1218      H1229   1.110       .  S
C1218      H1230   1.110       .  S
C1218      H1231   1.109       .  S
C1220      C1221   1.410       .  A
C1220      C1225   1.505       .  S
C1221      C1222   1.405       .  A
C1221      H1226   1.084       .  S
C1222      C1223   1.415       .  A
C1223      C1224   1.404       .  A
C1223      C1227   1.508       .  S
C1224      H1228   1.084   1_455  S
C1225      H1235   1.111       .  S
C1225      H1236   1.110       .  S
C1225      H1237   1.109       .  S
C1227      H1238   1.111       .  S
C1227      H1239   1.110       .  S
C1227      H1240   1.109       .  S
C1241      C1242   1.403       .  A
C1241      C1246   1.407       .  A
C1241      H1251   1.084   1_655  S
C1242      C1247   1.497       .  S
C1242      C1243   1.414       .  A
C1243      C1244   1.414       .  A
C1243      C1248   1.504       .  S
C1244      C1245   1.407       .  A
C1244      H1249   1.084       .  S
C1245      C1246   1.415       .  A
C1246      C1250   1.506       .  S
C1247      C1252   1.415       .  A
C1247      C1256   1.403   1_655  A
C1248      H1264   1.110       .  S
C1248      H1265   1.109       .  S
C1248      H1266   1.111       .  S
C1250      H1261   1.111       .  S
C1250      H1262   1.110       .  S
C1250      H1263   1.109       .  S
C1252      C1253   1.411   1_655  A
C1252      C1257   1.506       .  S
C1253      C1254   1.405       .  A
C1253      H1258   1.083       .  S
C1254      C1255   1.415       .  A
C1255      C1256   1.411       .  A
C1255      C1259   1.506       .  S
C1256      H1260   1.084       .  S
C1257      H1267   1.111       .  S
C1257      H1268   1.110       .  S
C1257      H1269   1.109       .  S
C1259      H1270   1.111       .  S
C1259      H1271   1.109       .  S
C1259      H1272   1.110       .  S
C1273      C1274   1.397       .  A
C1273      C1278   1.405       .  A
C1273      H1283   1.084       .  S
C1274      C1279   1.489   1_554  S
C1274      C1275   1.410       .  A
C1275      C1276   1.411       .  A
C1275      C1280   1.505       .  S
C1276      C1277   1.412       .  A
C1276      H1281   1.083       .  S
C1277      C1278   1.427       .  A
C1278      C1282   1.509       .  S
C1279      C1284   1.412       .  A
C1279      C1288   1.404   1_556  A
C1280      H1296   1.110       .  S
C1280      H1297   1.110   1_554  S
C1280      H1298   1.111       .  S
C1282      H1293   1.110       .  S
C1282      H1294   1.111       .  S
C1282      H1295   1.109       .  S
C1284      C1285   1.406       .  A
C1284      C1289   1.506       .  S
C1285      C1286   1.404       .  A
C1285      H1290   1.084       .  S
C1286      C1287   1.416       .  A
C1287      C1288   1.408   1_556  A
C1287      C1291   1.508   1_556  S
C1288      H1292   1.084       .  S
C1289      H1299   1.111       .  S
C1289      H1300   1.110       .  S
C1289      H1301   1.110       .  S
C1291      H1302   1.111       .  S
C1291      H1303   1.109       .  S
C1291      H1304   1.111       .  S
C1305      C1306   1.402   1_655  A
C1305      C1310   1.407       .  A
C1305      H1315   1.084       .  S
C1306      C1311   1.488       .  S
C1306      C1307   1.413       .  A
C1307      C1308   1.407   1_455  A
C1307      C1312   1.507       .  S
C1308      C1309   1.403       .  A
C1308      H1313   1.082       .  S
C1309      C1310   1.416       .  A
C1310      C1314   1.507       .  S
C1311      C1316   1.412       .  A
C1311      C1320   1.401       .  A
C1312      H1328   1.110       .  S
C1312      H1329   1.110       .  S
C1312      H1330   1.111       .  S
C1314      H1325   1.110       .  S
C1314      H1326   1.110       .  S
C1314      H1327   1.109       .  S
C1316      C1317   1.411       .  A
C1316      C1321   1.504       .  S
C1317      C1318   1.406       .  A
C1317      H1322   1.084       .  S
C1318      C1319   1.416       .  A
C1319      C1320   1.401       .  A
C1319      C1323   1.508       .  S
C1320      H1324   1.085       .  S
C1321      H1331   1.111       .  S
C1321      H1332   1.110       .  S
C1321      H1333   1.110       .  S
C1323      H1334   1.110       .  S
C1323      H1335   1.107       .  S
C1323      H1336   1.111       .  S
C1337      C1338   1.393       .  A
C1337      C1342   1.392       .  A
C1337      H1347   1.085       .  S
C1338      C1343   1.467       .  S
C1338      C1339   1.414       .  A
C1339      C1340   1.404       .  A
C1339      C1344   1.506       .  S
C1340      C1341   1.399       .  A
C1340      H1345   1.084       .  S
C1341      C1342   1.417       .  A
C1342      C1346   1.510       .  S
C1343      C1348   1.412       .  A
C1343      C1352   1.396       .  A
C1344      H1360   1.110       .  S
C1344      H1361   1.109       .  S
C1344      H1362   1.111       .  S
C1346      H1357   1.110       .  S
C1346      H1358   1.110       .  S
C1346      H1359   1.108   1_556  S
C1348      C1349   1.401       .  A
C1348      C1353   1.507       .  S
C1349      C1350   1.402       .  A
C1349      H1354   1.084       .  S
C1350      C1351   1.415       .  A
C1351      C1352   1.395       .  A
C1351      C1355   1.507       .  S
C1352      H1356   1.085       .  S
C1353      H1363   1.111       .  S
C1353      H1364   1.110       .  S
C1353      H1365   1.109       .  S
C1355      H1366   1.109       .  S
C1355      H1367   1.110       .  S
C1355      H1368   1.111       .  S
C1369      C1370   1.402       .  A
C1369      C1374   1.401       .  A
C1369      H1379   1.084       .  S
C1370      C1375   1.467       .  S
C1370      C1371   1.407       .  A
C1371      C1372   1.396       .  A
C1371      C1376   1.509       .  S
C1372      C1373   1.406       .  A
C1372      H1377   1.085       .  S
C1373      C1374   1.412       .  A
C1374      C1378   1.508       .  S
C1375      C1380   1.405       .  A
C1375      C1384   1.405       .  A
C1376      H1392   1.110       .  S
C1376      H1393   1.107       .  S
C1376      H1394   1.111       .  S
C1378      H1389   1.111       .  S
C1378      H1390   1.110       .  S
C1378      H1391   1.110       .  S
C1380      C1381   1.393       .  A
C1380      C1385   1.509       .  S
C1381      C1382   1.405       .  A
C1381      H1386   1.085       .  S
C1382      C1383   1.409       .  A
C1383      C1384   1.403       .  A
C1383      C1387   1.506       .  S
C1384      H1388   1.084       .  S
C1385      H1395   1.111       .  S
C1385      H1396   1.110       .  S
C1385      H1397   1.107       .  S
C1387      H1398   1.111       .  S
C1387      H1399   1.107       .  S
C1387      H1400   1.110       .  S
C1401      C1402   1.401   1_556  A
C1401      C1406   1.403       .  A
C1401      H1411   1.084       .  S
C1402      C1407   1.494       .  S
C1402      C1403   1.414       .  A
C1403      C1404   1.415       .  A
C1403      C1408   1.504       .  S
C1404      C1405   1.406   1_554  A
C1404      H1409   1.084       .  S
C1405      C1406   1.414       .  A
C1406      C1410   1.504       .  S
C1407      C1412   1.414   1_655  A
C1407      C1416   1.405   1_655  A
C1408      H1424   1.110       .  S
C1408      H1425   1.110       .  S
C1408      H1426   1.111       .  S
C1410      H1421   1.111       .  S
C1410      H1422   1.110       .  S
C1410      H1423   1.109       .  S
C1412      C1413   1.407       .  A
C1412      C1417   1.507   1_455  S
C1413      C1414   1.404       .  A
C1413      H1418   1.084       .  S
C1414      C1415   1.414       .  A
C1415      C1416   1.412       .  A
C1415      C1419   1.505       .  S
C1416      H1420   1.084       .  S
C1417      H1427   1.111       .  S
C1417      H1428   1.110       .  S
C1417      H1429   1.110       .  S
C1419      H1430   1.110       .  S
C1419      H1431   1.110       .  S
C1419      H1432   1.111       .  S
C1433      C1434   1.401       .  A
C1433      C1438   1.412       .  A
C1433      H1443   1.084       .  S
C1434      C1439   1.496       .  S
C1434      C1435   1.410       .  A
C1435      C1436   1.408       .  A
C1435      C1440   1.507       .  S
C1436      C1437   1.412       .  A
C1436      H1441   1.083       .  S
C1437      C1438   1.429       .  A
C1438      C1442   1.509       .  S
C1439      C1444   1.410       .  A
C1439      C1448   1.404       .  A
C1440      H1456   1.110       .  S
C1440      H1457   1.110       .  S
C1440      H1458   1.111       .  S
C1442      H1453   1.110       .  S
C1442      H1454   1.111       .  S
C1442      H1455   1.111       .  S
C1444      C1445   1.406       .  A
C1444      C1449   1.508       .  S
C1445      C1446   1.411       .  A
C1445      H1450   1.084       .  S
C1446      C1447   1.422       .  A
C1447      C1448   1.415       .  A
C1447      C1451   1.506       .  S
C1448      H1452   1.084       .  S
C1449      H1459   1.111       .  S
C1449      H1460   1.110       .  S
C1449      H1461   1.111       .  S
C1451      H1462   1.110       .  S
C1451      H1463   1.110       .  S
C1451      H1464   1.111       .  S
C1465      C1466   1.402       .  A
C1465      C1470   1.411       .  A
C1465      H1475   1.084       .  S
C1466      C1471   1.494       .  S
C1466      C1467   1.411       .  A
C1467      C1468   1.408       .  A
C1467      C1472   1.506       .  S
C1468      C1469   1.408       .  A
C1468      H1473   1.084       .  S
C1469      C1470   1.424       .  A
C1470      C1474   1.508       .  S
C1471      C1476   1.410       .  A
C1471      C1480   1.402       .  A
C1472      H1488   1.110       .  S
C1472      H1489   1.109       .  S
C1472      H1490   1.111       .  S
C1474      H1485   1.111       .  S
C1474      H1486   1.109       .  S
C1474      H1487   1.110       .  S
C1476      C1477   1.408       .  A
C1476      C1481   1.506       .  S
C1477      C1478   1.410       .  A
C1477      H1482   1.084       .  S
C1478      C1479   1.423       .  A
C1479      C1480   1.411       .  A
C1479      C1483   1.507       .  S
C1480      H1484   1.084       .  S
C1481      H1491   1.111       .  S
C1481      H1492   1.110       .  S
C1481      H1493   1.109       .  S
C1483      H1494   1.110       .  S
C1483      H1495   1.110       .  S
C1483      H1496   1.111       .  S
C1497      C1498   1.403       .  A
C1497      C1502   1.411       .  A
C1497      H1507   1.084       .  S
C1498      C1503   1.487       .  S
C1498      C1499   1.408       .  A
C1499      C1500   1.402       .  A
C1499      C1504   1.507       .  S
C1500      C1501   1.410       .  A
C1500      H1505   1.083       .  S
C1501      C1502   1.421       .  A
C1502      C1506   1.507       .  S
C1503      C1508   1.410       .  A
C1503      C1512   1.399       .  A
C1504      H1520   1.110       .  S
C1504      H1521   1.110       .  S
C1504      H1522   1.111       .  S
C1506      H1517   1.109       .  S
C1506      H1518   1.111       .  S
C1506      H1519   1.111       .  S
C1508      C1509   1.408       .  A
C1508      C1513   1.506       .  S
C1509      C1510   1.408       .  A
C1509      H1514   1.084       .  S
C1510      C1511   1.421       .  A
C1511      C1512   1.406       .  A
C1511      C1515   1.505       .  S
C1512      H1516   1.084       .  S
C1513      H1523   1.110       .  S
C1513      H1524   1.110       .  S
C1513      H1525   1.110       .  S
C1515      H1526   1.106       .  S
C1515      H1527   1.111       .  S
C1515      H1528   1.111       .  S
C1529      C1530   1.405       .  A
C1529      C1534   1.410       .  A
C1529      H1539   1.084       .  S
C1530      C1535   1.494       .  S
C1530      C1531   1.412       .  A
C1531      C1532   1.407       .  A
C1531      C1536   1.506       .  S
C1532      C1533   1.407       .  A
C1532      H1537   1.084       .  S
C1533      C1534   1.417       .  A
C1534      C1538   1.507       .  S
C1535      C1540   1.411       .  A
C1535      C1544   1.405       .  A
C1536      H1552   1.110       .  S
C1536      H1553   1.110       .  S
C1536      H1554   1.111       .  S
C1538      H1549   1.109       .  S
C1538      H1550   1.111       .  S
C1538      H1551   1.111       .  S
C1540      C1541   1.406       .  A
C1540      C1545   1.507       .  S
C1541      C1542   1.408       .  A
C1541      H1546   1.084       .  S
C1542      C1543   1.420       .  A
C1543      C1544   1.410       .  A
C1543      C1547   1.508       .  S
C1544      H1548   1.084       .  S
C1545      H1555   1.111       .  S
C1545      H1556   1.110       .  S
C1545      H1557   1.110       .  S
C1547      H1558   1.111       .  S
C1547      H1559   1.106       .  S
C1547      H1560   1.110       .  S
C1561      C1562   1.401   1_554  A
C1561      C1566   1.399       .  A
C1561      H1571   1.085   1_554  S
C1562      C1567   1.465       .  S
C1562      C1563   1.405   1_556  A
C1563      C1564   1.395       .  A
C1563      C1568   1.507       .  S
C1564      C1565   1.405       .  A
C1564      H1569   1.085       .  S
C1565      C1566   1.414       .  A
C1566      C1570   1.509       .  S
C1567      C1572   1.402       .  A
C1567      C1576   1.403       .  A
C1568      H1584   1.110   1_554  S
C1568      H1585   1.109   1_554  S
C1568      H1586   1.111       .  S
C1570      H1581   1.110       .  S
C1570      H1582   1.110       .  S
C1570      H1583   1.105       .  S
C1572      C1573   1.392       .  A
C1572      C1577   1.509       .  S
C1573      C1574   1.409       .  A
C1573      H1578   1.085       .  S
C1574      C1575   1.414       .  A
C1575      C1576   1.403       .  A
C1575      C1579   1.506       .  S
C1576      H1580   1.085       .  S
C1577      H1587   1.111       .  S
C1577      H1588   1.110       .  S
C1577      H1589   1.109       .  S
C1579      H1590   1.110       .  S
C1579      H1591   1.104       .  S
C1579      H1592   1.111       .  S
C1593      C1594   1.401       .  A
C1593      C1598   1.401       .  A
C1593      H1603   1.084       .  S
C1594      C1599   1.469       .  S
C1594      C1595   1.407       .  A
C1595      C1596   1.397       .  A
C1595      C1600   1.508       .  S
C1596      C1597   1.405       .  A
C1596      H1601   1.085       .  S
C1597      C1598   1.414       .  A
C1598      C1602   1.508       .  S
C1599      C1604   1.404       .  A
C1599      C1608   1.406       .  A
C1600      H1616   1.110       .  S
C1600      H1617   1.108       .  S
C1600      H1618   1.111       .  S
C1602      H1613   1.111       .  S
C1602      H1614   1.109       .  S
C1602      H1615   1.110       .  S
C1604      C1605   1.393       .  A
C1604      C1609   1.509       .  S
C1605      C1606   1.406       .  A
C1605      H1610   1.085       .  S
C1606      C1607   1.410       .  A
C1607      C1608   1.405       .  A
C1607      C1611   1.505       .  S
C1608      H1612   1.084       .  S
C1609      H1619   1.111       .  S
C1609      H1620   1.110       .  S
C1609      H1621   1.108       .  S
C1611      H1622   1.110       .  S
C1611      H1623   1.107       .  S
C1611      H1624   1.110       .  S
C1625      C1626   1.399       .  A
C1625      C1630   1.409       .  A
C1625      H1635   1.084       .  S
C1626      C1631   1.498       .  S
C1626      C1627   1.411       .  A
C1627      C1628   1.413       .  A
C1627      C1632   1.505       .  S
C1628      C1629   1.413       .  A
C1628      H1633   1.083       .  S
C1629      C1630   1.430       .  A
C1630      C1634   1.509       .  S
C1631      C1636   1.413       .  A
C1631      C1640   1.402       .  A
C1632      H1648   1.110       .  S
C1632      H1649   1.110       .  S
C1632      H1650   1.111       .  S
C1634      H1645   1.111       .  S
C1634      H1646   1.110   1_554  S
C1634      H1647   1.110       .  S
C1636      C1637   1.411       .  A
C1636      C1641   1.506       .  S
C1637      C1638   1.409       .  A
C1637      H1642   1.084       .  S
C1638      C1639   1.424       .  A
C1639      C1640   1.412       .  A
C1639      C1643   1.507       .  S
C1640      H1644   1.084       .  S
C1641      H1651   1.111       .  S
C1641      H1652   1.110       .  S
C1641      H1653   1.110       .  S
C1643      H1654   1.111       .  S
C1643      H1655   1.109       .  S
C1643      H1656   1.111       .  S
C1657      C1658   1.405       .  A
C1657      C1662   1.412       .  A
C1657      H1667   1.084       .  S
C1658      C1663   1.497       .  S
C1658      C1659   1.412       .  A
C1659      C1660   1.406       .  A
C1659      C1664   1.507       .  S
C1660      C1661   1.407       .  A
C1660      H1665   1.084       .  S
C1661      C1662   1.421       .  A
C1662      C1666   1.508   1_556  S
C1663      C1668   1.413       .  A
C1663      C1672   1.405       .  A
C1664      H1680   1.109       .  S
C1664      H1681   1.110       .  S
C1664      H1682   1.111       .  S
C1666      H1677   1.110       .  S
C1666      H1678   1.111       .  S
C1666      H1679   1.111       .  S
C1668      C1669   1.409       .  A
C1668      C1673   1.507       .  S
C1669      C1670   1.408       .  A
C1669      H1674   1.084       .  S
C1670      C1671   1.417       .  A
C1671      C1672   1.410       .  A
C1671      C1675   1.506       .  S
C1672      H1676   1.084       .  S
C1673      H1683   1.111       .  S
C1673      H1684   1.109       .  S
C1673      H1685   1.110       .  S
C1675      H1686   1.111       .  S
C1675      H1687   1.110       .  S
C1675      H1688   1.110       .  S
C1689      C1690   1.405       .  A
C1689      C1694   1.416       .  A
C1689      H1699   1.084       .  S
C1690      C1695   1.496       .  S
C1690      C1691   1.411       .  A
C1691      C1692   1.403       .  A
C1691      C1696   1.508       .  S
C1692      C1693   1.410       .  A
C1692      H1697   1.084       .  S
C1693      C1694   1.421       .  A
C1694      C1698   1.505       .  S
C1695      C1700   1.410       .  A
C1695      C1704   1.406       .  A
C1696      H1712   1.110       .  S
C1696      H1713   1.110       .  S
C1696      H1714   1.111       .  S
C1698      H1709   1.109       .  S
C1698      H1710   1.111       .  S
C1698      H1711   1.110       .  S
C1700      C1701   1.406       .  A
C1700      C1705   1.506       .  S
C1701      C1702   1.408       .  A
C1701      H1706   1.084       .  S
C1702      C1703   1.420       .  A
C1703      C1704   1.412       .  A
C1703      C1707   1.507       .  S
C1704      H1708   1.084       .  S
C1705      H1715   1.111       .  S
C1705      H1716   1.110       .  S
C1705      H1717   1.110       .  S
C1707      H1718   1.111       .  S
C1707      H1719   1.104       .  S
C1707      H1720   1.110       .  S
C1721      C1722   1.409       .  A
C1721      C1726   1.419       .  A
C1721      H1731   1.083       .  S
C1722      C1727   1.501       .  S
C1722      C1723   1.412       .  A
C1723      C1724   1.404       .  A
C1723      C1728   1.508       .  S
C1724      C1725   1.406       .  A
C1724      H1729   1.081       .  S
C1725      C1726   1.418       .  A
C1726      C1730   1.505       .  S
C1727      C1732   1.412       .  A
C1727      C1736   1.407       .  A
C1728      H1744   1.110       .  S
C1728      H1745   1.110       .  S
C1728      H1746   1.111       .  S
C1730      H1741   1.110       .  S
C1730      H1742   1.111       .  S
C1730      H1743   1.111       .  S
C1732      C1733   1.410       .  A
C1732      C1737   1.506       .  S
C1733      C1734   1.407   1_554  A
C1733      H1738   1.084       .  S
C1734      C1735   1.418       .  A
C1735      C1736   1.412   1_556  A
C1735      C1739   1.507       .  S
C1736      H1740   1.084       .  S
C1737      H1747   1.111       .  S
C1737      H1748   1.110       .  S
C1737      H1749   1.111       .  S
C1739      H1750   1.110       .  S
C1739      H1751   1.109       .  S
C1739      H1752   1.111       .  S
C1753      C1754   1.397       .  A
C1753      C1758   1.406       .  A
C1753      H1763   1.084       .  S
C1754      C1759   1.492       .  S
C1754      C1755   1.411       .  A
C1755      C1756   1.412       .  A
C1755      C1760   1.505       .  S
C1756      C1757   1.411       .  A
C1756      H1761   1.084       .  S
C1757      C1758   1.428       .  A
C1758      C1762   1.510       .  S
C1759      C1764   1.412       .  A
C1759      C1768   1.400       .  A
C1760      H1776   1.110       .  S
C1760      H1777   1.110       .  S
C1760      H1778   1.111       .  S
C1762      H1773   1.109       .  S
C1762      H1774   1.111       .  S
C1762      H1775   1.110       .  S
C1764      C1765   1.410       .  A
C1764      C1769   1.506       .  S
C1765      C1766   1.409       .  A
C1765      H1770   1.084       .  S
C1766      C1767   1.422       .  A
C1767      C1768   1.407       .  A
C1767      C1771   1.508       .  S
C1768      H1772   1.084       .  S
C1769      H1779   1.111       .  S
C1769      H1780   1.110       .  S
C1769      H1781   1.110       .  S
C1771      H1782   1.109       .  S
C1771      H1783   1.110       .  S
C1771      H1784   1.111       .  S
C1785      C1786   1.400       .  A
C1785      C1790   1.406       .  A
C1785      H1795   1.084       .  S
C1786      C1791   1.489       .  S
C1786      C1787   1.411       .  A
C1787      C1788   1.410       .  A
C1787      C1792   1.505       .  S
C1788      C1789   1.407       .  A
C1788      H1793   1.084       .  S
C1789      C1790   1.422       .  A
C1790      C1794   1.508       .  S
C1791      C1796   1.411       .  A
C1791      C1800   1.403       .  A
C1792      H1808   1.110       .  S
C1792      H1809   1.110       .  S
C1792      H1810   1.111       .  S
C1794      H1805   1.111       .  S
C1794      H1806   1.109       .  S
C1794      H1807   1.110       .  S
C1796      C1797   1.405       .  A
C1796      C1801   1.506       .  S
C1797      C1798   1.406       .  A
C1797      H1802   1.084       .  S
C1798      C1799   1.417       .  A
C1799      C1800   1.410       .  A
C1799      C1803   1.507       .  S
C1800      H1804   1.084       .  S
C1801      H1811   1.111       .  S
C1801      H1812   1.110       .  S
C1801      H1813   1.110       .  S
C1803      H1814   1.109       .  S
C1803      H1815   1.111       .  S
C1803      H1816   1.111       .  S
C1817      C1818   1.404       .  A
C1817      C1822   1.401       .  A
C1817      H1827   1.085       .  S
C1818      C1823   1.467       .  S
C1818      C1819   1.405       .  A
C1819      C1820   1.394       .  A
C1819      C1824   1.508       .  S
C1820      C1821   1.404       .  A
C1820      H1825   1.085       .  S
C1821      C1822   1.409       .  A
C1822      C1826   1.506       .  S
C1823      C1828   1.405       .  A
C1823      C1832   1.402       .  A
C1824      H1840   1.110       .  S
C1824      H1841   1.108       .  S
C1824      H1842   1.111       .  S
C1826      H1837   1.110       .  S
C1826      H1838   1.110       .  S
C1826      H1839   1.108       .  S
C1828      C1829   1.395       .  A
C1828      C1833   1.508       .  S
C1829      C1830   1.407       .  A
C1829      H1834   1.085       .  S
C1830      C1831   1.413       .  A
C1831      C1832   1.402       .  A
C1831      C1835   1.508       .  S
C1832      H1836   1.084       .  S
C1833      H1843   1.111       .  S
C1833      H1844   1.111       .  S
C1833      H1845   1.108       .  S
C1835      H1846   1.111       .  S
C1835      H1847   1.111       .  S
C1835      H1848   1.110       .  S
C1849      C1850   1.403       .  A
C1849      C1854   1.403       .  A
C1849      H1859   1.084       .  S
C1850      C1855   1.466       .  S
C1850      C1851   1.404       .  A
C1851      C1852   1.394       .  A
C1851      C1856   1.508       .  S
C1852      C1853   1.406       .  A
C1852      H1857   1.085       .  S
C1853      C1854   1.412       .  A
C1854      C1858   1.508       .  S
C1855      C1860   1.403       .  A
C1855      C1864   1.405       .  A
C1856      H1872   1.110       .  S
C1856      H1873   1.109       .  S
C1856      H1874   1.111       .  S
C1858      H1869   1.111       .  S
C1858      H1870   1.111       .  S
C1858      H1871   1.110       .  S
C1860      C1861   1.391       .  A
C1860      C1865   1.508       .  S
C1861      C1862   1.405       .  A
C1861      H1866   1.085       .  S
C1862      C1863   1.412       .  A
C1863      C1864   1.404       .  A
C1863      C1867   1.506       .  S
C1864      H1868   1.084       .  S
C1865      H1875   1.111       .  S
C1865      H1876   1.110       .  S
C1865      H1877   1.109       .  S
C1867      H1878   1.110       .  S
C1867      H1879   1.106       .  S
C1867      H1880   1.111       .  S
C1881      C1882   1.406       .  A
C1881      C1886   1.415       .  A
C1881      H1891   1.083       .  S
C1882      C1887   1.495       .  S
C1882      C1883   1.413       .  A
C1883      C1884   1.402       .  A
C1883      C1888   1.510       .  S
C1884      C1885   1.409       .  A
C1884      H1889   1.083       .  S
C1885      C1886   1.419       .  A
C1886      C1890   1.504       .  S
C1887      C1892   1.412       .  A
C1887      C1896   1.406       .  A
C1888      H1904   1.109       .  S
C1888      H1905   1.110       .  S
C1888      H1906   1.111       .  S
C1890      H1901   1.111       .  S
C1890      H1902   1.110       .  S
C1890      H1903   1.110       .  S
C1892      C1893   1.406       .  A
C1892      C1897   1.506       .  S
C1893      C1894   1.407       .  A
C1893      H1898   1.084       .  S
C1894      C1895   1.416       .  A
C1895      C1896   1.408       .  A
C1895      C1899   1.505       .  S
C1896      H1900   1.084       .  S
C1897      H1907   1.111       .  S
C1897      H1908   1.110       .  S
C1897      H1909   1.110       .  S
C1899      H1910   1.110       .  S
C1899      H1911   1.105       .  S
C1899      H1912   1.111       .  S
C1913      C1914   1.405       .  A
C1913      C1918   1.410       .  A
C1913      H1923   1.084       .  S
C1914      C1919   1.495       .  S
C1914      C1915   1.411       .  A
C1915      C1916   1.408       .  A
C1915      C1920   1.507       .  S
C1916      C1917   1.409       .  A
C1916      H1921   1.084       .  S
C1917      C1918   1.419       .  A
C1918      C1922   1.507       .  S
C1919      C1924   1.411       .  A
C1919      C1928   1.406       .  A
C1920      H1936   1.110       .  S
C1920      H1937   1.111       .  S
C1920      H1938   1.111       .  S
C1922      H1933   1.110       .  S
C1922      H1934   1.110       .  S
C1922      H1935   1.104       .  S
C1924      C1925   1.401       .  A
C1924      C1929   1.509       .  S
C1925      C1926   1.409       .  A
C1925      H1930   1.083       .  S
C1926      C1927   1.421       .  A
C1927      C1928   1.415       .  A
C1927      C1931   1.506       .  S
C1928      H1932   1.084       .  S
C1929      H1939   1.111       .  S
C1929      H1940   1.109       .  S
C1929      H1941   1.110       .  S
C1931      H1942   1.111       .  S
C1931      H1943   1.111       .  S
C1931      H1944   1.110       .  S
