geometry optimzed in LAMMPS
_audit_creation_date              2020-11-30 
_audit_creation_method            'lammps2cif' 
_symmetry_space_group_name_H-M    'P1' 
_symmetry_Int_Tables_number       1 
_symmetry_cell_setting            triclinic 
loop_ 
_symmetry_equiv_pos_as_xyz 
  x,y,z 
_cell_length_a                    48.61967266 
_cell_length_b                    47.812636215376635 
_cell_length_c                    45.36698401860513 
_cell_angle_alpha                 90.16991246774532 
_cell_angle_beta                  90.70062215601412 
_cell_angle_gamma                 89.56019311633742 
loop_ 
_atom_site_label 
_atom_site_type_symbol 
_atom_site_fract_x 
_atom_site_fract_y 
_atom_site_fract_z 
_atom_site_charge 
N1          N  0.96676836  0.00343811  0.24154143    -0.36000
N2          N  0.00328558  0.05107967  0.23991753    -0.56500
N3          N  0.05006480  0.01371562  0.24512236    -0.36000
N4          N  0.01352390  0.96604250  0.24532048    -0.56500
C5          C  0.94957805  0.02401657  0.23214387     0.27600
C6          C  0.95478817  0.97880169  0.23454025     0.27600
C7          C  0.06258867  0.03765277  0.23727893     0.27600
C8          C  0.06828325  0.99270863  0.24077769     0.27600
C9          C  0.97919928  0.06454989  0.24411012     0.36200
C10         C  0.02324135  0.07005012  0.24466218     0.36200
C11         C  0.99339935  0.94698279  0.24833121     0.36200
C12         C  0.03750722  0.95256231  0.25089405     0.36200
C13         C  0.92638933  0.01233278  0.21911382    -0.21300
C14         C  0.92959081  0.98378515  0.22082188    -0.21300
C15         C  0.08920003  0.03184248  0.22831821    -0.21300
C16         C  0.09281848  0.00344628  0.23058946    -0.21300
C17         C  0.98387611  0.09222169  0.25187452    -0.22300
C18         C  0.01189205  0.09579295  0.25184542    -0.22300
C19         C  0.00461232  0.92120404  0.25580066    -0.22300
C20         C  0.03261755  0.92473041  0.25740011    -0.22300
C21         C  0.95330592  0.05296459  0.23722288    -0.17700
C22         C  0.96543178  0.95194932  0.24135412    -0.17700
C23         C  0.06378611  0.96423107  0.24687442    -0.17700
C24         C  0.05135484  0.06477142  0.24010418    -0.17700
H25         H  0.90876344  0.02325181  0.20978632     0.15200
H26         H  0.91497991  0.96844579  0.21290852     0.15200
H27         H  0.10457458  0.04654828  0.22124311     0.15200
H28         H  0.11147833  0.99204968  0.22544485     0.15200
H29         H  0.96867846  0.10838333  0.25597502     0.13500
H30         H  0.02264544  0.11514728  0.25614775     0.13500
H31         H  0.99382007  0.90172597  0.25882864     0.13500
H32         H  0.04769917  0.90847498  0.26188919     0.13500
H33         H  0.98401461  0.00607776  0.25501868     0.26800
H34         H  0.03140856  0.01212645  0.25588785     0.26800
O35         O  0.21435922  0.31576418  0.24994410    -0.80300
O36         O  0.23724632  0.22833054  0.15856387    -0.65000
O37         O  0.23421221  0.26400381  0.23284670    -1.11600
C38         C  0.31544516  0.30709502  0.20471299     1.06600
O39         O  0.28229689  0.21986145  0.16080295    -0.78200
O40         O  0.30170879  0.23189855  0.21568467    -0.65700
Ni41       Ni  0.20023009  0.27873754  0.24646465     1.34900
C42         C  0.30081319  0.24220964  0.24145345     0.85400
O43         O  0.20400712  0.22265519  0.20407182    -0.78700
O44         O  0.18401444  0.24247476  0.24355108    -0.89000
C45         C  0.25844167  0.21542660  0.14990267     0.84900
O46         O  0.18373500  0.28980015  0.20998967    -0.67200
O47         O  0.32096983  0.28266832  0.19486662    -0.86500
C48         C  0.19099827  0.28761191  0.18339327     0.85800
C49         C  0.18623770  0.22287875  0.22455649     1.07300
H50         H  0.26113666  0.28266755  0.17273575     0.39100
O51         O  0.26543435  0.26974779  0.18848376    -1.09100
O52         O  0.28873175  0.26542898  0.24691559    -0.65800
Ni53       Ni  0.26321364  0.28932282  0.22504810     1.26300
O54         O  0.21150278  0.27276861  0.17591037    -0.66000
O55         O  0.29222835  0.31384842  0.21532118    -0.78300
C56         C  0.23525669  0.32186362  0.26549915     0.85100
O57         O  0.25807220  0.30956227  0.26107090    -0.65500
Ni58       Ni  0.29945172  0.25183861  0.17938729     1.27400
Ni59       Ni  0.23480393  0.24608072  0.19569414     1.26100
H60         H  0.24037324  0.25050288  0.24730129     0.39700
O61         O  0.69352465  0.19801508  0.24299348    -0.80300
O62         O  0.79131140  0.23444932  0.15949655    -0.65000
O63         O  0.74055284  0.22478386  0.22183103    -1.11600
C64         C  0.69166819  0.29754171  0.17491618     1.06600
O65         O  0.79009654  0.28068759  0.15962650    -0.78200
O66         O  0.76089386  0.30101975  0.20606147    -0.65700
Ni67       Ni  0.72910317  0.18700603  0.22867948     1.34900
C68         C  0.74672094  0.29711953  0.22899551     0.85400
O69         O  0.79233499  0.20533922  0.20854615    -0.78700
O70         O  0.76399962  0.17032237  0.21794732    -0.89000
C71         C  0.80121266  0.25766059  0.15195173     0.84900
O72         O  0.71496312  0.18318088  0.18945137    -0.67200
O73         O  0.71566631  0.30658965  0.16958115    -0.86500
C74         C  0.72983721  0.18440952  0.16667326     0.85800
C75         C  0.78806904  0.18013845  0.21515178     1.07300
H76         H  0.73193024  0.24654416  0.15628985     0.39100
O77         O  0.73964327  0.25416515  0.17427895    -1.09100
O78         O  0.72724944  0.27950397  0.23005240    -0.65800
Ni79       Ni  0.71358308  0.24957993  0.20508120     1.26300
O80         O  0.75165126  0.19911847  0.16620054    -0.66000
O81         O  0.68734176  0.27402497  0.18689562    -0.78300
C82         C  0.68098825  0.22098092  0.24770989     0.85100
O83         O  0.68792137  0.24380544  0.23585071    -0.65500
Ni84       Ni  0.75216096  0.29131658  0.16615835     1.27400
Ni85       Ni  0.76615960  0.22929178  0.19067733     1.26100
H86         H  0.74817123  0.23237002  0.23989432     0.39700
O87         O  0.80954283  0.70486229  0.17220274    -0.80300
O88         O  0.71376261  0.74837801  0.24994976    -0.65000
O89         O  0.76130590  0.73432278  0.18625120    -1.11600
C90         C  0.81588586  0.80695111  0.22159671     1.06600
O91         O  0.72301065  0.79328952  0.25885915    -0.78200
O92         O  0.74102451  0.80794047  0.20449182    -0.65700
Ni93       Ni  0.77109529  0.69681565  0.17605255     1.34900
C94         C  0.75269376  0.80507800  0.17975081     0.85400
O95         O  0.70921593  0.71792989  0.20186024    -0.78700
O96         O  0.73351878  0.68496666  0.17824448    -0.89000
C97         C  0.70839284  0.77161702  0.26199368     0.84900
O98         O  0.77832533  0.68313653  0.21466924    -0.67200
O99         O  0.79263054  0.81731358  0.22847287    -0.86500
C100        C  0.76603804  0.68786417  0.23865257     0.85800
C101        C  0.71086482  0.69505744  0.18751934     1.07300
H102        H  0.77583411  0.75533950  0.25036906     0.39100
O103        O  0.76711185  0.76380418  0.23331620    -1.09100
O104        O  0.77348691  0.78881281  0.17636814    -0.65800
Ni105      Ni  0.78981399  0.75825495  0.19951642     1.26300
O106        O  0.75029421  0.70904554  0.24237544    -0.66000
O107        O  0.81865486  0.78164567  0.21384414    -0.78300
C108        C  0.82054151  0.72622372  0.16086780     0.85100
O109        O  0.81158060  0.75065041  0.16592099    -0.65500
Ni110      Ni  0.75807347  0.80224286  0.24208538     1.27400
Ni111      Ni  0.73770360  0.74055055  0.21843357     1.26100
H112        H  0.75245417  0.74230423  0.16910616     0.39700
O113        O  0.29526925  0.79690257  0.17470535    -0.80300
O114        O  0.25560210  0.70406415  0.26299574    -0.65000
O115        O  0.26927874  0.74886614  0.19594503    -1.11600
C116        C  0.19957874  0.80627904  0.23909187     1.06600
O117        O  0.21083619  0.70736603  0.25442754    -0.78200
O118        O  0.18525531  0.74332556  0.21795091    -0.65700
Ni119      Ni  0.30598466  0.76027884  0.18819375     1.34900
C120        C  0.19278861  0.74636722  0.19151298     0.85400
O121        O  0.28722429  0.69760326  0.21618530    -0.78700
O122        O  0.32129222  0.72439727  0.19951716    -0.89000
C123        C  0.23147223  0.69490706  0.26584808     0.84900
O124        O  0.31187438  0.77547362  0.22632876    -0.67200
O125        O  0.19474306  0.78603631  0.25649672    -0.86500
C126        C  0.30936750  0.76284637  0.25060030     0.85800
C127        C  0.31151245  0.70084224  0.20704763     1.07300
H128        H  0.24877326  0.76661927  0.25767364     0.39100
O129        O  0.23987969  0.75595923  0.24169070    -1.09100
O130        O  0.21562172  0.75735853  0.18486023    -0.65800
Ni131      Ni  0.24347456  0.77711703  0.20693228     1.26300
O132        O  0.29333100  0.74208761  0.25371666    -0.66000
O133        O  0.21719964  0.80506401  0.21851271    -0.78300
C134        C  0.27264388  0.80699132  0.16515878     0.85100
O135        O  0.24940651  0.79769705  0.17238991    -0.65500
Ni136      Ni  0.20404903  0.74706737  0.25497369     1.27400
Ni137      Ni  0.26366137  0.72644486  0.22979749     1.26100
H138        H  0.26263501  0.73883076  0.17878645     0.39700
N139        N  0.26522138  0.96090636  0.96639865    -0.36000
N140        N  0.25511258  0.00910490  0.00295762    -0.56500
N141        N  0.26805384  0.04319691  0.95318785    -0.36000
N142        N  0.27689665  0.99469690  0.91665951    -0.56500
C143        C  0.25432635  0.94968078  0.99072589     0.27600
C144        C  0.26162690  0.94226468  0.94434747     0.27600
C145        C  0.25540881  0.06195634  0.97088151     0.27600
C146        C  0.26869687  0.05444992  0.92601337     0.27600
C147        C  0.25933446  0.98985381  0.02408678     0.36200
C148        C  0.25722842  0.03409048  0.01638486     0.36200
C149        C  0.28396102  0.96958255  0.90554500     0.36200
C150        C  0.28850846  0.01399754  0.89942812     0.36200
C151        C  0.24348917  0.92364720  0.98430491    -0.21300
C152        C  0.24772517  0.91910313  0.95472447    -0.21300
C153        C  0.24780912  0.08540752  0.95482502    -0.21300
C154        C  0.25615019  0.08064909  0.92637047    -0.21300
C155        C  0.26361630  0.00251610  0.05124384    -0.22300
C156        C  0.26204940  0.03080230  0.04636606    -0.22300
C157        C  0.30012995  0.97278912  0.88085881    -0.22300
C158        C  0.30318772  0.00116233  0.87706024    -0.22300
C159        C  0.25746734  0.96106794  0.01904087    -0.17700
C160        C  0.27396312  0.94419906  0.91649435    -0.17700
C161        C  0.28270591  0.04272200  0.90178799    -0.17700
C162        C  0.25384785  0.05965526  0.00172198    -0.17700
H163        H  0.23417633  0.90923359  0.99952057     0.15200
H164        H  0.24244742  0.90032510  0.94260094     0.15200
H165        H  0.23805305  0.10427317  0.96299074     0.15200
H166        H  0.25390452  0.09514502  0.90820648     0.15200
H167        H  0.26708200  0.99244431  0.07231316     0.13500
H168        H  0.26436891  0.04703774  0.06287080     0.13500
H169        H  0.30837616  0.95647279  0.86685524     0.13500
H170        H  0.31401144  0.01119672  0.85931869     0.13500
H171        H  0.27833617  0.97800204  0.96636604     0.26800
H172        H  0.27925216  0.02571943  0.96005078     0.26800
N173        N  0.97109929  0.27857551  0.95858366    -0.36000
N174        N  0.00887790  0.29023400  0.00647256    -0.56500
N175        N  0.05317669  0.29726951  0.96416345    -0.36000
N176        N  0.01571452  0.28283418  0.91654201    -0.56500
C177        C  0.95526450  0.27149068  0.98166901     0.27600
C178        C  0.95851084  0.26895966  0.93391779     0.27600
C179        C  0.06764366  0.29714180  0.98974843     0.27600
C180        C  0.07130544  0.29259294  0.94227518     0.27600
C181        C  0.98528895  0.29006620  0.02190171     0.36200
C182        C  0.02849724  0.30042209  0.02475425     0.36200
C183        C  0.99433828  0.28133826  0.89737716     0.36200
C184        C  0.03790992  0.28955666  0.90051001     0.36200
C185        C  0.93220561  0.25735908  0.97147144    -0.21300
C186        C  0.93415872  0.25594243  0.94129552    -0.21300
C187        C  0.09538071  0.29313167  0.98395793    -0.21300
C188        C  0.09766186  0.29017638  0.95399355    -0.21300
C189        C  0.98996255  0.30011185  0.05019380    -0.22300
C190        C  0.01740360  0.30657049  0.05204123    -0.22300
C191        C  0.00305479  0.28677654  0.86898333    -0.22300
C192        C  0.03073903  0.29188398  0.87096533    -0.22300
C193        C  0.96006397  0.27913620  0.01143481    -0.17700
C194        C  0.96743380  0.27335124  0.90480489    -0.17700
C195        C  0.06492417  0.29166074  0.91188513    -0.17700
C196        C  0.05674429  0.30155281  0.01812848    -0.17700
H197        H  0.91542164  0.24938014  0.98436913     0.15200
H198        H  0.91920391  0.24661427  0.92646439     0.15200
H199        H  0.11231101  0.29242609  0.99965514     0.15200
H200        H  0.11660950  0.28676111  0.94218279     0.15200
H201        H  0.97526439  0.30207802  0.06782106     0.13500
H202        H  0.02807628  0.31440144  0.07141107     0.13500
H203        H  0.99084140  0.28663561  0.84887557     0.13500
H204        H  0.04410321  0.29655049  0.85274166     0.13500
H205        H  0.98759251  0.29218887  0.95911070     0.26800
H206        H  0.03265674  0.30299622  0.96166384     0.26800
N207        N  0.73817627  0.03051340  0.95036027    -0.36000
N208        N  0.74164439  0.98539241  0.90704890    -0.56500
N209        N  0.73362164  0.94417718  0.95431351    -0.36000
N210        N  0.73331438  0.98937664  0.99786658    -0.56500
C211        C  0.74294770  0.04589566  0.92597033     0.27600
C212        C  0.73868546  0.04802018  0.97383853     0.27600
C213        C  0.73924548  0.92674648  0.93153578     0.27600
C214        C  0.73507139  0.92890375  0.97943735     0.27600
C215        C  0.74182936  0.00733586  0.88821725     0.36200
C216        C  0.74026109  0.96191883  0.89038420     0.36200
C217        C  0.73099078  0.01298837  0.01418484     0.36200
C218        C  0.72962050  0.96764740  0.01640637     0.36200
C219        C  0.74638839  0.07366549  0.93409637    -0.21300
C220        C  0.74377123  0.07498805  0.96421791    -0.21300
C221        C  0.74332946  0.89986522  0.94225709    -0.21300
C222        C  0.74073192  0.90122971  0.97236954    -0.21300
C223        C  0.74106237  0.99768284  0.85938716    -0.22300
C224        C  0.74013992  0.96900206  0.86074412    -0.22300
C225        C  0.72613805  0.00613996  0.04334633    -0.22300
C226        C  0.72540882  0.97750491  0.04476864    -0.22300
C227        C  0.74301384  0.03601485  0.89641655    -0.17700
C228        C  0.73376346  0.04073919  0.00362296    -0.17700
C229        C  0.73133996  0.93894988  0.00864158    -0.17700
C230        C  0.74042230  0.93407177  0.90124284    -0.17700
H231        H  0.75014917  0.09128093  0.91981089     0.15200
H232        H  0.74518598  0.09379211  0.97747542     0.15200
H233        H  0.74794377  0.88114346  0.92973831     0.15200
H234        H  0.74300804  0.88377515  0.98736086     0.15200
H235        H  0.74122065  0.01000580  0.83941440     0.13500
H236        H  0.73952336  0.95497946  0.84197830     0.13500
H237        H  0.72358022  0.02027687  0.06180422     0.13500
H238        H  0.72226008  0.96535000  0.06451489     0.13500
H239        H  0.73259789  0.00977897  0.95073503     0.26800
H240        H  0.72697883  0.96469969  0.95251678     0.26800
N241        N  0.06408896  0.67266297  0.96893757    -0.36000
N242        N  0.02109204  0.67246574  0.92314948    -0.56500
N243        N  0.97874104  0.67574121  0.96652293    -0.36000
N244        N  0.02151964  0.67700098  0.01217752    -0.56500
C245        C  0.07894404  0.67831729  0.94476271     0.27600
C246        C  0.07915758  0.68095564  0.99264234     0.27600
C247        C  0.96412788  0.68277488  0.94205634     0.27600
C248        C  0.96433724  0.68500963  0.98988370     0.27600
C249        C  0.04332500  0.66759445  0.90642076     0.36200
C250        C  0.99896162  0.66926440  0.90523124     0.36200
C251        C  0.04350455  0.67372234  0.03033571     0.36200
C252        C  0.99908744  0.67490639  0.02918184     0.36200
C253        C  0.10418787  0.68929151  0.95318567    -0.21300
C254        C  0.10427062  0.69106737  0.98345576    -0.21300
C255        C  0.93981077  0.69595192  0.94999763    -0.21300
C256        C  0.93992369  0.69733694  0.98025042    -0.21300
C257        C  0.03528285  0.66086578  0.87782409    -0.22300
C258        C  0.00710822  0.66189686  0.87709498    -0.22300
C259        C  0.03499693  0.66913107  0.05894403    -0.22300
C260        C  0.00679359  0.66979599  0.05820206    -0.22300
C261        C  0.07056939  0.67327750  0.91533877    -0.17700
C262        C  0.07079850  0.67949907  0.02230768    -0.17700
C263        C  0.97216794  0.68168912  0.01971131    -0.17700
C264        C  0.97204037  0.67728594  0.91278281    -0.17700
H265        H  0.12071331  0.69568303  0.93898335     0.15200
H266        H  0.12085070  0.69909485  0.99709766     0.15200
H267        H  0.92373782  0.70392512  0.93552274     0.15200
H268        H  0.92391889  0.70653972  0.99362091     0.15200
H269        H  0.04837626  0.65692634  0.85911155     0.13500
H270        H  0.99415666  0.65895684  0.85777149     0.13500
H271        H  0.04780892  0.66684311  0.07848388     0.13500
H272        H  0.99351524  0.66811046  0.07708267     0.13500
H273        H  0.04562053  0.66185780  0.96919871     0.26800
H274        H  0.99630055  0.66320161  0.96745869     0.26800
O275        O  0.29610661  0.75826835  0.78009260    -0.80300
O276        O  0.27360691  0.71204979  0.65555574    -0.65000
O277        O  0.28119445  0.76084428  0.72136063    -1.11600
C278        C  0.20235298  0.71093469  0.75258748     1.06600
O279        O  0.23086882  0.72671223  0.65428489    -0.78200
O280        O  0.19779561  0.74931716  0.69488317    -0.65700
Ni281      Ni  0.31455232  0.76352266  0.74320668     1.34900
C282        C  0.20527576  0.77220700  0.70650693     0.85400
O283        O  0.30879340  0.75355822  0.66935468    -0.78700
O284        O  0.33443229  0.77007310  0.70740771    -0.89000
C285        C  0.25006313  0.71225327  0.64328985     0.84900
O286        O  0.32512553  0.72483557  0.74325008    -0.67200
O287        O  0.20061155  0.70096475  0.72647103    -0.86500
C288        C  0.32088063  0.70536893  0.72471188     0.85800
C289        C  0.32986439  0.76605515  0.67986381     1.07300
H290        H  0.25564111  0.70239707  0.71810835     0.39100
O291        O  0.24962413  0.72018286  0.71017113    -1.09100
O292        O  0.22714731  0.77414670  0.72200190    -0.65800
Ni293      Ni  0.25011385  0.74636238  0.74124147     1.26300
O294        O  0.30403098  0.70766782  0.70320672    -0.66000
O295        O  0.21876829  0.73060602  0.75995018    -0.78300
C296        C  0.27582643  0.77362965  0.78737727     0.85100
O297        O  0.25366577  0.77263081  0.77244440    -0.65500
Ni298      Ni  0.21582854  0.71386662  0.69034438     1.27400
Ni299      Ni  0.27908739  0.73623117  0.68866911     1.26100
H300        H  0.27691385  0.77945910  0.71435857     0.39700
N301        N  0.97939886  0.98473555  0.69266911    -0.36000
N302        N  0.02410811  0.94396965  0.69677441    -0.56500
N303        N  0.06305033  0.98892566  0.70373052    -0.36000
N304        N  0.01795973  0.02977812  0.69743343    -0.56500
C305        C  0.96650845  0.96108173  0.68412662     0.27600
C306        C  0.96315393  0.00652611  0.68442082     0.27600
C307        C  0.08038950  0.96716102  0.69849451     0.27600
C308        C  0.07714738  0.01275973  0.69907549     0.27600
C309        C  0.00244367  0.92674158  0.69970751     0.36200
C310        C  0.04671281  0.92893546  0.70442712     0.36200
C311        C  0.99435100  0.04474215  0.69983294     0.36200
C312        C  0.03862909  0.04702250  0.70541942     0.36200
C313        C  0.94179008  0.96788038  0.67021101    -0.21300
C314        C  0.93965984  0.99660891  0.67043075    -0.21300
C315        C  0.10594059  0.97730429  0.69084441    -0.21300
C316        C  0.10392093  0.00608792  0.69127022    -0.21300
C317        C  0.01131294  0.90063965  0.70929244    -0.22300
C318        C  0.03942516  0.90196978  0.71204827    -0.22300
C319        C  0.00002823  0.07166808  0.70931585    -0.22300
C320        C  0.02812436  0.07314950  0.71277427    -0.22300
C321        C  0.97513018  0.93361395  0.69139557    -0.17700
C322        C  0.96805467  0.03491369  0.69135378    -0.17700
C323        C  0.06692822  0.04030700  0.70337041    -0.17700
C324        C  0.07398534  0.93847446  0.70181591    -0.17700
H325        H  0.92655802  0.95358117  0.66148058     0.15200
H326        H  0.92252429  0.00878474  0.66181805     0.15200
H327        H  0.12419212  0.96523029  0.68570704     0.15200
H328        H  0.12035732  0.02046988  0.68651588     0.15200
H329        H  0.99891885  0.88233993  0.71316914     0.13500
H330        H  0.05299376  0.88494359  0.71849305     0.13500
H331        H  0.98551193  0.08859984  0.71279316     0.13500
H332        H  0.03955910  0.09149933  0.71942299     0.13500
H333        H  0.99629084  0.98569633  0.70688697     0.26800
H334        H  0.04362352  0.98773371  0.71292362     0.26800
O335        O  0.29843234  0.21592968  0.75314270    -0.80300
O336        O  0.24861518  0.31123067  0.67183918    -0.65000
O337        O  0.26818232  0.26425062  0.73630183    -1.11600
C338        C  0.19514374  0.20673467  0.70692042     1.06600
O339        O  0.20383886  0.30161017  0.66850774    -0.78200
O340        O  0.19301664  0.28245540  0.72209052    -0.65700
Ni341      Ni  0.30602680  0.25382606  0.74223035     1.34900
C342        C  0.19818642  0.27169182  0.74700504     0.85400
O343        O  0.28381772  0.31660558  0.71589587    -0.78700
O344        O  0.31864520  0.29058185  0.73352674    -0.89000
C345        C  0.22439970  0.31680190  0.66308150     0.84900
O346        O  0.31220977  0.24207060  0.70263856    -0.67200
O347        O  0.18406996  0.22969285  0.69881197    -0.86500
C348        C  0.30519582  0.25400187  0.67868641     0.85800
C349        C  0.30861697  0.31377446  0.72482186     1.07300
H350        H  0.24239139  0.24787980  0.67471250     0.39100
O351        O  0.23532083  0.25725148  0.69196385    -1.09100
O352        O  0.21533180  0.25150266  0.75033512    -0.65800
Ni353      Ni  0.24377912  0.23487797  0.72582632     1.26300
O354        O  0.28660597  0.27282315  0.67744994    -0.66000
O355        O  0.22025233  0.20498463  0.71439511    -0.78300
C356        C  0.27767952  0.20491364  0.76500009     0.85100
O357        O  0.25354512  0.21360351  0.75952426    -0.65500
Ni358      Ni  0.19707893  0.26540189  0.68473745     1.27400
Ni359      Ni  0.25918177  0.28757297  0.70363600     1.26100
H360        H  0.26201646  0.27348211  0.75399853     0.39700
O361        O  0.80664448  0.27728090  0.74369622    -0.80300
O362        O  0.71011749  0.24041277  0.65778295    -0.65000
O363        O  0.75743399  0.25094197  0.72410016    -1.11600
C364        C  0.80842220  0.17496454  0.68683752     1.06600
O365        O  0.71257813  0.19389833  0.65589632    -0.78200
O366        O  0.73578068  0.17552848  0.70730703    -0.65700
Ni367      Ni  0.76942355  0.28831006  0.73322944     1.34900
C368        C  0.74921932  0.17827082  0.73128406     0.85400
O369        O  0.70630968  0.27196983  0.70567893    -0.78700
O370        O  0.73350685  0.30442671  0.72529699    -0.89000
C371        C  0.70120103  0.21704880  0.64892428     0.84900
O372        O  0.78105838  0.29764464  0.69456787    -0.67200
O373        O  0.78471119  0.16628269  0.67887118    -0.86500
C374        C  0.76787867  0.29417884  0.67054897     0.85800
C375        C  0.70987608  0.29625252  0.71658095     1.07300
H376        H  0.76982911  0.22776411  0.66013499     0.39100
O377        O  0.76089921  0.22046817  0.67735311    -1.09100
O378        O  0.76894291  0.19549031  0.73424011    -0.65800
Ni379      Ni  0.78472556  0.22505498  0.71073876     1.26300
O380        O  0.74907569  0.27596195  0.66733210    -0.66000
O381        O  0.81204993  0.19974466  0.69618502    -0.78300
C382        C  0.81698317  0.25416985  0.75232696     0.85100
O383        O  0.80756983  0.23084405  0.74417154    -0.65500
Ni384      Ni  0.74919581  0.18284036  0.66878210     1.27400
Ni385      Ni  0.73347690  0.24639430  0.69090000     1.26100
H386        H  0.74847182  0.24361657  0.74127328     0.39700
O387        O  0.72453786  0.77832617  0.66150344    -0.80300
O388        O  0.81895338  0.73673875  0.74839294    -0.65000
O389        O  0.77231613  0.74947823  0.68190417    -1.11600
C390        C  0.72044270  0.67577740  0.71839533     1.06600
O391        O  0.81605516  0.69040775  0.74875821    -0.78200
O392        O  0.79311136  0.67525505  0.69622550    -0.65700
Ni393      Ni  0.76180398  0.78749596  0.67305593     1.34900
C394        C  0.77918917  0.67815822  0.67258083     0.85400
O395        O  0.82394652  0.76768043  0.70076179    -0.78700
O396        O  0.79802711  0.80184763  0.68171173    -0.89000
C397        C  0.82721521  0.71304949  0.75716382     0.84900
O398        O  0.75008624  0.79714658  0.71178469    -0.67200
O399        O  0.74406954  0.66562767  0.72470945    -0.86500
C400        C  0.76296321  0.79288192  0.73590530     0.85800
C401        C  0.82120777  0.79217660  0.69039876     1.07300
H402        H  0.75968579  0.72612808  0.74592554     0.39100
O403        O  0.76822409  0.71892063  0.72836036    -1.09100
O404        O  0.75869098  0.69487870  0.67113033    -0.65800
Ni405      Ni  0.74426221  0.72497417  0.69539545     1.26300
O406        O  0.78122936  0.77381961  0.73893892    -0.66000
O407        O  0.71689838  0.70085934  0.71008246    -0.78300
C408        C  0.71327168  0.75569116  0.65310437     0.85100
O409        O  0.72085767  0.73200481  0.66255277    -0.65500
Ni410      Ni  0.77961129  0.68080699  0.73520291     1.27400
Ni411      Ni  0.79608621  0.74365911  0.71513551     1.26100
H412        H  0.78100198  0.74167210  0.66466324     0.39700
N413        N  0.44699703  0.50195843  0.75348140    -0.36000
N414        N  0.51048587  0.53965293  0.74211604    -0.56500
N415        N  0.55022399  0.49351400  0.73373442    -0.36000
N416        N  0.50893077  0.45336252  0.74501463    -0.56500
C417        C  0.45913113  0.52443602  0.76608670     0.27600
C418        C  0.45942178  0.47911255  0.76522602     0.27600
C419        C  0.56719826  0.51563328  0.73702859     0.27600
C420        C  0.56574341  0.46991504  0.73690828     0.27600
C421        C  0.48864696  0.55739673  0.74160155     0.36200
C422        C  0.53227780  0.55434709  0.73301653     0.36200
C423        C  0.48464980  0.44009516  0.74338774     0.36200
C424        C  0.52798774  0.43574889  0.73411616     0.36200
C425        C  0.47768300  0.51561672  0.78768170    -0.21300
C426        C  0.47804776  0.48696495  0.78693575    -0.21300
C427        C  0.59385128  0.50595691  0.74209529    -0.21300
C428        C  0.59289290  0.47717923  0.74216252    -0.21300
C429        C  0.49630061  0.58336407  0.73140209    -0.22300
C430        C  0.52416558  0.58160044  0.72644430    -0.22300
C431        C  0.48809877  0.41365922  0.73132674    -0.22300
C432        C  0.51584498  0.41075282  0.72574122    -0.22300
C433        C  0.46222158  0.54980830  0.75107559    -0.17700
C434        C  0.45963197  0.45290828  0.75129643    -0.17700
C435        C  0.55623983  0.44206133  0.73322388    -0.17700
C436        C  0.55968373  0.54422004  0.73343970    -0.17700
H437        H  0.49211471  0.52856912  0.79978650     0.15200
H438        H  0.49229099  0.47349889  0.79884517     0.15200
H439        H  0.61224618  0.51830490  0.74502072     0.15200
H440        H  0.61029674  0.46319798  0.74525835     0.15200
H441        H  0.48343259  0.60179188  0.72886045     0.13500
H442        H  0.53703388  0.59858536  0.71928231     0.13500
H443        H  0.47234894  0.39827600  0.72690819     0.13500
H444        H  0.52586116  0.39258403  0.71630848     0.13500
H445        H  0.43497568  0.50219282  0.73424905     0.26800
H446        H  0.52984169  0.49461324  0.72652682     0.26800
N447        N  0.46782695  0.50447071  0.18056791    -0.36000
N448        N  0.50986306  0.46282189  0.17293815    -0.56500
N449        N  0.55034314  0.50644272  0.16980389    -0.36000
N450        N  0.50778253  0.54841230  0.17652582    -0.56500
C451        C  0.45261196  0.48156679  0.17474195     0.27600
C452        C  0.45149504  0.52697377  0.17575911     0.27600
C453        C  0.56457963  0.48442092  0.15889849     0.27600
C454        C  0.56356881  0.52985439  0.16165403     0.27600
C455        C  0.48926654  0.44625212  0.18175481     0.36200
C456        C  0.53304686  0.44737713  0.17510317     0.36200
C457        C  0.48607123  0.56334544  0.18630936     0.36200
C458        C  0.53019544  0.56432762  0.18114131     0.36200
C459        C  0.42629593  0.48950254  0.16601136    -0.21300
C460        C  0.42561812  0.51829014  0.16649509    -0.21300
C461        C  0.58719100  0.49388606  0.14364924    -0.21300
C462        C  0.58656685  0.52267057  0.14540585    -0.21300
C463        C  0.49929951  0.42008519  0.18957591    -0.22300
C464        C  0.52719501  0.42078980  0.18535065    -0.22300
C465        C  0.49463828  0.58898783  0.19719590    -0.22300
C466        C  0.52272971  0.58959253  0.19398338    -0.22300
C467        C  0.46135308  0.45386899  0.17998086    -0.17700
C468        C  0.45853844  0.55473571  0.18305693    -0.17700
C469        C  0.55668952  0.55718869  0.17107666    -0.17700
C470        C  0.55869227  0.45611177  0.16459548    -0.17700
H471        H  0.40923747  0.47595018  0.16053962     0.15200
H472        H  0.40785316  0.53132243  0.16159054     0.15200
H473        H  0.60279103  0.48134038  0.13294070     0.15200
H474        H  0.60161506  0.53669616  0.13631872     0.15200
H475        H  0.48766368  0.40220802  0.19679743     0.13500
H476        H  0.54142067  0.40352715  0.18867883     0.13500
H477        H  0.48193377  0.60566090  0.20595387     0.13500
H478        H  0.53601569  0.60687782  0.19974517     0.13500
H479        H  0.48680930  0.50461222  0.19141173     0.26800
H480        H  0.53465645  0.50546853  0.18515936     0.26800
N481        N  0.78445614  0.52922747  0.45083259    -0.36000
N482        N  0.77634896  0.48647739  0.40502519    -0.56500
N483        N  0.77130549  0.44388264  0.45092823    -0.36000
N484        N  0.77957527  0.48651597  0.49666491    -0.56500
C485        C  0.78202169  0.54595060  0.42680879     0.27600
C486        C  0.78357679  0.54592804  0.47505928     0.27600
C487        C  0.77106127  0.42713939  0.42675867     0.27600
C488        C  0.77336440  0.42711540  0.47492170     0.27600
C489        C  0.77831312  0.50904693  0.38725730     0.36200
C490        C  0.77274869  0.46393988  0.38729780     0.36200
C491        C  0.78321243  0.50898719  0.51442800     0.36200
C492        C  0.77823319  0.46387778  0.51439013     0.36200
C493        C  0.78070042  0.57364655  0.43594316    -0.21300
C494        C  0.78153939  0.57362074  0.46621806    -0.21300
C495        C  0.77216773  0.39939396  0.43560155    -0.21300
C496        C  0.77363067  0.39938191  0.46585706    -0.21300
C497        C  0.77615377  0.50072279  0.35801545    -0.22300
C498        C  0.77262011  0.47224674  0.35804403    -0.22300
C499        C  0.78434018  0.50050355  0.54363238    -0.22300
C500        C  0.78107166  0.47203384  0.54361196    -0.22300
C501        C  0.78046207  0.53728866  0.39678518    -0.17700
C502        C  0.78437750  0.53724749  0.50504631    -0.17700
C503        C  0.77524424  0.43577019  0.50486641    -0.17700
C504        C  0.77006885  0.43582658  0.39682787    -0.17700
H505        H  0.77881569  0.59207751  0.42225438     0.15200
H506        H  0.78040143  0.59201134  0.48012944     0.15200
H507        H  0.77232704  0.38096190  0.42169404     0.15200
H508        H  0.77510496  0.38094486  0.47958926     0.15200
H509        H  0.77669711  0.51383299  0.33862609     0.13500
H510        H  0.77019551  0.45917220  0.33868217     0.13500
H511        H  0.78704800  0.51347281  0.56302820     0.13500
H512        H  0.78098118  0.45884182  0.56295829     0.13500
H513        H  0.78816190  0.50789319  0.45064915     0.26800
H514        H  0.76842796  0.46532606  0.45109333     0.26800
N515        N  0.54498054  0.77270855  0.45249744    -0.36000
N516        N  0.50840992  0.77679491  0.50163096    -0.56500
N517        N  0.46361235  0.79040886  0.46154408    -0.36000
N518        N  0.50023223  0.78824681  0.41213236    -0.56500
C519        C  0.56316283  0.77400282  0.47524774     0.27600
C520        C  0.55880923  0.77941144  0.42792693     0.27600
C521        C  0.45156836  0.79609139  0.48753494     0.27600
C522        C  0.44687282  0.80053809  0.44010541     0.27600
C523        C  0.53061686  0.76610762  0.51576016     0.36200
C524        C  0.48745606  0.77535687  0.52064954     0.36200
C525        C  0.51958604  0.78084079  0.39245560     0.36200
C526        C  0.47604438  0.78893404  0.39719143     0.36200
C527        C  0.58883460  0.78138064  0.46497783    -0.21300
C528        C  0.58611280  0.78467597  0.43503127    -0.21300
C529        C  0.42684709  0.81010969  0.48256473    -0.21300
C530        C  0.42383560  0.81281481  0.45251323    -0.21300
C531        C  0.52383774  0.75781182  0.54396679    -0.22300
C532        C  0.49638719  0.76374848  0.54711732    -0.22300
C533        C  0.50786379  0.77757388  0.36469653    -0.22300
C534        C  0.48016627  0.78256558  0.36771822    -0.22300
C535        C  0.55747917  0.76738700  0.50480859    -0.17700
C536        C  0.54792042  0.77879859  0.39900774    -0.17700
C537        C  0.45043682  0.79598111  0.40971946    -0.17700
C538        C  0.46100475  0.78650604  0.51526319    -0.17700
H539        H  0.60764664  0.78387287  0.47768687     0.15200
H540        H  0.60243277  0.79015206  0.42014223     0.15200
H541        H  0.41208754  0.81686778  0.49882482     0.15200
H542        H  0.40637531  0.82206478  0.44104549     0.15200
H543        H  0.53745877  0.74931903  0.56079687     0.13500
H544        H  0.48456799  0.76056664  0.56687554     0.13500
H545        H  0.51820408  0.77220602  0.34443412     0.13500
H546        H  0.46487514  0.78175575  0.35020112     0.13500
H547        H  0.52523033  0.76454577  0.45307412     0.26800
H548        H  0.48000922  0.77676087  0.45839675     0.26800
N549        N  0.16905014  0.47042442  0.47469069    -0.36000
N550        N  0.16456057  0.52087679  0.50953811    -0.56500
N551        N  0.15827068  0.55493175  0.45627002    -0.36000
N552        N  0.16288970  0.50379300  0.42192848    -0.56500
C553        C  0.17800718  0.46101517  0.50116684     0.27600
C554        C  0.17814280  0.45201649  0.45427597     0.27600
C555        C  0.16536003  0.57462811  0.47639994     0.27600
C556        C  0.16479094  0.56521626  0.42946598     0.27600
C557        C  0.16514825  0.50215026  0.53178070     0.36200
C558        C  0.16047394  0.54618563  0.52199775     0.36200
C559        C  0.16315777  0.47812736  0.40955994     0.36200
C560        C  0.15755118  0.52202357  0.39994270     0.36200
C561        C  0.19213109  0.43591268  0.49760386    -0.21300
C562        C  0.19225300  0.43026610  0.46797598    -0.21300
C563        C  0.17496016  0.59817639  0.46213444    -0.21300
C564        C  0.17481211  0.59217657  0.43261494    -0.21300
C565        C  0.16087176  0.51549383  0.55847736    -0.22300
C566        C  0.15812913  0.54347584  0.55230209    -0.22300
C567        C  0.15710724  0.47997012  0.37967059    -0.22300
C568        C  0.15341107  0.50784058  0.37360127    -0.22300
C569        C  0.17313860  0.47391751  0.52864317    -0.17700
C570        C  0.17386443  0.45410010  0.42359855    -0.17700
C571        C  0.16251345  0.55090352  0.40218100    -0.17700
C572        C  0.16470851  0.57173702  0.50739275    -0.17700
H573        H  0.20163406  0.42308039  0.51456084     0.15200
H574        H  0.20176735  0.41223019  0.45770475     0.15200
H575        H  0.18222810  0.61743262  0.47200188     0.15200
H576        H  0.18200893  0.60596962  0.41554333     0.15200
H577        H  0.16130903  0.50625617  0.58023204     0.13500
H578        H  0.15615576  0.56010163  0.56840210     0.13500
H579        H  0.15710470  0.46319477  0.36359636     0.13500
H580        H  0.15020168  0.51681705  0.35194178     0.13500
H581        H  0.15560600  0.48710052  0.47107021     0.26800
H582        H  0.14872118  0.53600478  0.46055219     0.26800
N583        N  0.44365101  0.20763552  0.45940833    -0.36000
N584        N  0.48527508  0.20795160  0.41394692    -0.56500
N585        N  0.52787440  0.21044252  0.45852900    -0.36000
N586        N  0.48640656  0.21096508  0.50388444    -0.56500
C587        C  0.42852772  0.21429380  0.43520534     0.27600
C588        C  0.42935299  0.21649755  0.48312766     0.27600
C589        C  0.54245928  0.21678607  0.43426865     0.27600
C590        C  0.54295739  0.21837866  0.48230849     0.27600
C591        C  0.46285037  0.20208913  0.39726333     0.36200
C592        C  0.50737190  0.20336158  0.39677263     0.36200
C593        C  0.46460276  0.20525629  0.52092819     0.36200
C594        C  0.50907337  0.20672785  0.52076586     0.36200
C595        C  0.40422597  0.22723379  0.44355624    -0.21300
C596        C  0.40488197  0.22892356  0.47382197    -0.21300
C597        C  0.56720574  0.22881181  0.44272939    -0.21300
C598        C  0.56757094  0.22971283  0.47309774    -0.21300
C599        C  0.47067193  0.19362924  0.36933820    -0.22300
C600        C  0.49894642  0.19434311  0.36905115    -0.22300
C601        C  0.47345569  0.19687805  0.54871710    -0.22300
C602        C  0.50171470  0.19806537  0.54869660    -0.22300
C603        C  0.43557394  0.20772220  0.40589889    -0.17700
C604        C  0.43718849  0.21196277  0.51289621    -0.17700
C605        C  0.53597606  0.21331374  0.51197615    -0.17700
C606        C  0.53468029  0.21022141  0.40489242    -0.17700
H607        H  0.38775738  0.23474460  0.42932099     0.15200
H608        H  0.38895499  0.23795253  0.48740989     0.15200
H609        H  0.58350568  0.23575805  0.42852291     0.15200
H610        H  0.58424190  0.23742973  0.48681732     0.15200
H611        H  0.45736777  0.18836107  0.35087236     0.13500
H612        H  0.51178027  0.18966192  0.35031686     0.13500
H613        H  0.46082692  0.19180270  0.56741292     0.13500
H614        H  0.51522324  0.19382644  0.56731556     0.13500
H615        H  0.46127276  0.19511574  0.45976879     0.26800
H616        H  0.51027389  0.19824267  0.45899316     0.26800
C617        C  0.64422345  0.74569966  0.61425021    -0.04800
C618        C  0.64908586  0.75887238  0.58707920     0.09300
C619        C  0.67486022  0.77089993  0.58156840    -0.02200
C620        C  0.69571514  0.77004582  0.60336086    -0.00500
C621        C  0.69086468  0.75707675  0.63076495    -0.04100
C622        C  0.66509299  0.74469054  0.63603559     0.02900
C623        C  0.62634978  0.76140339  0.56497318     0.09800
C624        C  0.67982462  0.78419081  0.55345891     0.35700
C625        C  0.65954978  0.73173472  0.66413438     0.39100
C626        C  0.60884704  0.78502457  0.56564951    -0.04500
C627        C  0.58633619  0.78690245  0.54602151     0.02700
C628        C  0.58095029  0.76487547  0.52602358    -0.04100
C629        C  0.59847489  0.74121798  0.52533840    -0.00300
C630        C  0.62156614  0.73980774  0.54433821    -0.02900
C631        C  0.61421624  0.80749313  0.58643882     0.36400
C632        C  0.59240480  0.71820965  0.50544835     0.40000
C633        C  0.56872481  0.81154821  0.54626339     0.39100
C634        C  0.64076067  0.71654561  0.54227192     0.36100
C635        C  0.61748957  0.73362428  0.61986836     0.36800
C636        C  0.72247040  0.78181006  0.59724588     0.40000
N637        N  0.55452150  0.83108068  0.54640745    -0.38100
N638        N  0.61859890  0.82543418  0.60297254    -0.39700
N639        N  0.58738500  0.69981451  0.48969054    -0.37400
N640        N  0.65629366  0.69819005  0.54032621    -0.39800
N641        N  0.68378625  0.79478389  0.53102252    -0.39600
N642        N  0.74387308  0.79110139  0.59251631    -0.37200
N643        N  0.65455038  0.72136574  0.68640742    -0.38200
N644        N  0.59611823  0.72408794  0.62422715    -0.39900
C645        C  0.76268350  0.58628710  0.56760750    -0.04800
C646        C  0.78729977  0.60087732  0.57341740     0.09300
C647        C  0.81090147  0.59480893  0.55669494    -0.02200
C648        C  0.81001591  0.57397522  0.53456613    -0.00500
C649        C  0.78529910  0.55956061  0.52847194    -0.04100
C650        C  0.76153279  0.56607258  0.54489623     0.02900
C651        C  0.78845577  0.62195262  0.59795955     0.09800
C652        C  0.83615262  0.60988933  0.56253299     0.35700
C653        C  0.73591192  0.55180640  0.53855006     0.39100
C654        C  0.79864076  0.61406799  0.62593125    -0.04500
C655        C  0.79713356  0.63280616  0.65000582     0.02700
C656        C  0.78551382  0.66002646  0.64626608    -0.04100
C657        C  0.77728972  0.66844950  0.61740094    -0.00300
C658        C  0.77824297  0.64930084  0.59362550    -0.02900
C659        C  0.80970956  0.58605854  0.63013840     0.36400
C660        C  0.76808710  0.69689738  0.61172247     0.40000
C661        C  0.80627113  0.62305502  0.67879375     0.39100
C662        C  0.76796717  0.65743998  0.56470855     0.36100
C663        C  0.73872331  0.59168477  0.58557497     0.36800
C664        C  0.83465650  0.56701357  0.51834660     0.40000
N665        N  0.81349084  0.61509034  0.70170342    -0.38100
N666        N  0.81853813  0.56371929  0.63338725    -0.39700
N667        N  0.76081732  0.71954932  0.60689011    -0.37400
N668        N  0.75959065  0.66379297  0.54167784    -0.39800
N669        N  0.85626634  0.62197320  0.56727265    -0.39600
N670        N  0.85433139  0.56141359  0.50542754    -0.37200
N671        N  0.71545211  0.54041456  0.53357523    -0.38200
N672        N  0.71975336  0.59597660  0.60012213    -0.39900
C673        C  0.61114730  0.59477638  0.70110091    -0.04800
C674        C  0.62532579  0.60376354  0.72675076     0.09300
C675        C  0.61756053  0.59365253  0.75462028    -0.02200
C676        C  0.59547055  0.57496893  0.75686081    -0.00500
C677        C  0.58208942  0.56510905  0.73112878    -0.04100
C678        C  0.58999310  0.57497720  0.70324524     0.02900
C679        C  0.64957364  0.62252266  0.72427468     0.09800
C680        C  0.63296600  0.60171079  0.78084494     0.35700
C681        C  0.57644721  0.56451806  0.67681234     0.39100
C682        C  0.64807326  0.65053063  0.73403722    -0.04500
C683        C  0.67153821  0.66758182  0.73314395     0.02700
C684        C  0.69610731  0.65736599  0.72047112    -0.04100
C685        C  0.69726147  0.62947847  0.70990909    -0.00300
C686        C  0.67437197  0.61189727  0.71277570    -0.02900
C687        C  0.62236912  0.66182774  0.74499759     0.36400
C688        C  0.72152589  0.61892772  0.69511360     0.40000
C689        C  0.67066961  0.69524600  0.74640030     0.39100
C690        C  0.67636970  0.58265744  0.70424567     0.36100
C691        C  0.61862042  0.60564570  0.67249389     0.36800
C692        C  0.58665818  0.56557090  0.78559052     0.40000
N693        N  0.67015737  0.71732876  0.75691263    -0.38100
N694        N  0.60191044  0.67099747  0.75369405    -0.39700
N695        N  0.74061313  0.61021862  0.68306386    -0.37400
N696        N  0.67780759  0.55930726  0.69760474    -0.39800
N697        N  0.64541308  0.60807772  0.80167731    -0.39600
N698        N  0.57954281  0.55809667  0.80848588    -0.37200
N699        N  0.56560975  0.55607157  0.65578808    -0.38200
N700        N  0.62465610  0.61427535  0.64968064    -0.39900
C701        C  0.79964289  0.38150610  0.56135560    -0.04800
C702        C  0.77443420  0.37219409  0.57278227     0.09300
C703        C  0.74945807  0.38332058  0.56141852    -0.02200
C704        C  0.74975846  0.40408735  0.53935133    -0.00500
C705        C  0.77497936  0.41348142  0.52807153    -0.04100
C706        C  0.79990884  0.40194518  0.53896572     0.02900
C707        C  0.77425293  0.35197411  0.59805314     0.09800
C708        C  0.72344655  0.37347052  0.57257472     0.35700
C709        C  0.82584833  0.41144042  0.52734503     0.39100
C710        C  0.76917130  0.36186790  0.62682851    -0.04500
C711        C  0.76818971  0.34303037  0.65065204     0.02700
C712        C  0.77263370  0.31405281  0.64599408    -0.04100
C713        C  0.77912907  0.30434611  0.61747530    -0.00300
C714        C  0.77963252  0.32319345  0.59351507    -0.02900
C715        C  0.76487532  0.39156224  0.63188567     0.36400
C716        C  0.78641649  0.27519485  0.61304546     0.40000
C717        C  0.76174660  0.35353295  0.67984539     0.39100
C718        C  0.78552556  0.31299060  0.56412839     0.36100
C719        C  0.82533143  0.37036781  0.57309196     0.36800
C720        C  0.72416187  0.41627958  0.52857476     0.40000
N721        N  0.75669368  0.36203790  0.70308493    -0.38100
N722        N  0.76146755  0.41524698  0.63587939    -0.39700
N723        N  0.79267392  0.25203556  0.60951730    -0.37400
N724        N  0.79030730  0.30489063  0.54066729    -0.39800
N725        N  0.70267235  0.36562325  0.58144335    -0.39600
N726        N  0.70381842  0.42619515  0.51998672    -0.37200
N727        N  0.84654784  0.41905131  0.51807563    -0.38200
N728        N  0.84575796  0.36134440  0.58250842    -0.39900
C729        C  0.65158876  0.22986575  0.58489193    -0.04800
C730        C  0.62738882  0.21729172  0.59536622     0.09300
C731        C  0.62745952  0.20488259  0.62356601    -0.02200
C732        C  0.65182388  0.20412379  0.64073511    -0.00500
C733        C  0.67598605  0.21674819  0.63029356    -0.04100
C734        C  0.67570040  0.22995967  0.60248566     0.02900
C735        C  0.60228237  0.21600254  0.57597738     0.09800
C736        C  0.60236540  0.19298811  0.63490106     0.35700
C737        C  0.70043855  0.24301592  0.59162484     0.39100
C738        C  0.59467532  0.19039485  0.56268688    -0.04500
C739        C  0.57274446  0.18956898  0.54216553     0.02700
C740        C  0.55823677  0.21427262  0.53484281    -0.04100
C741        C  0.56500008  0.23967788  0.54901886    -0.00300
C742        C  0.58683679  0.24048846  0.56977168    -0.02900
C743        C  0.60941721  0.16484531  0.57015222     0.36400
C744        C  0.54978227  0.26500508  0.54182912     0.40000
C745        C  0.56511987  0.16330519  0.52834437     0.39100
C746        C  0.59336595  0.26639742  0.58494798     0.36100
C747        C  0.65176631  0.24229672  0.55574844     0.36800
C748        C  0.65187422  0.19082335  0.66943235     0.40000
N749        N  0.55889928  0.14239974  0.51731407    -0.38100
N750        N  0.62093248  0.14441791  0.57647973    -0.39700
N751        N  0.53771077  0.28524191  0.53600788    -0.37400
N752        N  0.59860468  0.28698474  0.59719544    -0.39800
N753        N  0.58230914  0.18346374  0.64381087    -0.39600
N754        N  0.65193589  0.18012311  0.69228082    -0.37200
N755        N  0.72013938  0.25344883  0.58292876    -0.38200
N756        N  0.65177363  0.25223704  0.53251862    -0.39900
C757        C  0.64016146  0.33326356  0.70200022    -0.04800
C758        C  0.64163565  0.35615325  0.72155067     0.09300
C759        C  0.66495190  0.35910049  0.74001068    -0.02200
C760        C  0.68670603  0.33934668  0.73904651    -0.00500
C761        C  0.68584270  0.31642862  0.71884209    -0.04100
C762        C  0.66213236  0.31375301  0.70028022     0.02900
C763        C  0.61836848  0.37699434  0.72333599     0.09800
C764        C  0.66642747  0.38261569  0.76029643     0.35700
C765        C  0.66005031  0.29148027  0.67864648     0.39100
C766        C  0.60059055  0.37674721  0.74771037    -0.04500
C767        C  0.58031073  0.39781135  0.75096193     0.02700
C768        C  0.57682964  0.41873487  0.72917761    -0.04100
C769        C  0.59364317  0.41798047  0.70394451    -0.00300
C770        C  0.61471166  0.39761644  0.70136692    -0.02900
C771        C  0.60345830  0.35484271  0.76962250     0.36400
C772        C  0.58915220  0.43818458  0.68055780     0.40000
C773        C  0.56355017  0.39832054  0.77718218     0.39100
C774        C  0.63309539  0.39828952  0.67645063     0.36100
C775        C  0.61570063  0.32962773  0.68376166     0.36800
C776        C  0.70956213  0.34274117  0.75961382     0.40000
N777        N  0.55018078  0.39862493  0.79811315    -0.38100
N778        N  0.60589529  0.33727621  0.78697456    -0.39700
N779        N  0.58541769  0.45433091  0.66195346    -0.37400
N780        N  0.64781077  0.39888653  0.65660627    -0.39800
N781        N  0.66745119  0.40129557  0.77654318    -0.39600
N782        N  0.72772847  0.34568324  0.77603406    -0.37200
N783        N  0.65772168  0.27395952  0.66117998    -0.38200
N784        N  0.59619922  0.32663985  0.66924697    -0.39900
C785        C  0.40139684  0.24274382  0.58042261    -0.04800
C786        C  0.37601513  0.22855863  0.57968559     0.09300
C787        C  0.37078471  0.20878516  0.55717518    -0.02200
C788        C  0.39145131  0.20187161  0.53680094    -0.00500
C789        C  0.41638858  0.21699509  0.53661458    -0.04100
C790        C  0.42088308  0.23800813  0.55819767     0.02900
C791        C  0.35514284  0.23412799  0.60308658     0.09800
C792        C  0.34383971  0.19612108  0.55454336     0.35700
C793        C  0.44530878  0.25525077  0.55731277     0.39100
C794        C  0.34229579  0.26061453  0.60519701    -0.04500
C795        C  0.32568073  0.26716702  0.62957319     0.02700
C796        C  0.32024363  0.24653401  0.65118148    -0.04100
C797        C  0.33083283  0.21912337  0.64712641    -0.00300
C798        C  0.34905547  0.21329144  0.62394121    -0.02900
C799        C  0.34659504  0.28134640  0.58242532     0.36400
C800        C  0.32223363  0.19649382  0.66604105     0.40000
C801        C  0.31541347  0.29560587  0.63277977     0.39100
C802        C  0.36207495  0.18594033  0.62197240     0.36100
C803        C  0.40751947  0.26225584  0.60414812     0.36800
C804        C  0.38704065  0.17908370  0.51612974     0.40000
N805        N  0.30731691  0.31830918  0.63529190    -0.38100
N806        N  0.35001342  0.29788698  0.56428803    -0.39700
N807        N  0.31504849  0.17825825  0.68069957    -0.37400
N808        N  0.37242770  0.16412573  0.62031149    -0.39800
N809        N  0.32223563  0.18627367  0.55238577    -0.39600
N810        N  0.38349137  0.16087959  0.49968162    -0.37200
N811        N  0.46486028  0.26888270  0.55665593    -0.38200
N812        N  0.41236814  0.27782495  0.62305578    -0.39900
C813        C  0.20032122  0.39007627  0.64432651    -0.04800
C814        C  0.20364385  0.39017657  0.61351776     0.09300
C815        C  0.21518044  0.36665542  0.59920130    -0.02200
C816        C  0.22326867  0.34301629  0.61567652    -0.00500
C817        C  0.21921385  0.34262698  0.64633063    -0.04100
C818        C  0.20778320  0.36616235  0.66070434     0.02900
C819        C  0.19403318  0.41457573  0.59573457     0.09800
C820        C  0.21788675  0.36650095  0.56739891     0.35700
C821        C  0.20315756  0.36548057  0.69224604     0.39100
C822        C  0.21202081  0.43690330  0.59019630    -0.04500
C823        C  0.20427070  0.45794241  0.56999014     0.02700
C824        C  0.17852080  0.45656847  0.55532621    -0.04100
C825        C  0.15990256  0.43516711  0.56230792    -0.00300
C826        C  0.16762915  0.41421719  0.58252741    -0.02900
C827        C  0.23900929  0.43733979  0.60415420     0.36400
C828        C  0.13353859  0.43374093  0.54706008     0.40000
C829        C  0.22346086  0.47987701  0.56271752     0.39100
C830        C  0.14899453  0.39146435  0.58861156     0.36100
C831        C  0.18868648  0.41435946  0.65896243     0.36800
C832        C  0.23490783  0.31870213  0.60108069     0.40000
N833        N  0.23875708  0.49737401  0.55685485    -0.38100
N834        N  0.26054717  0.43756852  0.61529432    -0.39700
N835        N  0.11266400  0.43262433  0.53459853    -0.37400
N836        N  0.13415466  0.37326551  0.59337943    -0.39800
N837        N  0.21982826  0.36631994  0.54200201    -0.39600
N838        N  0.24421473  0.29921892  0.58961954    -0.37200
N839        N  0.19935279  0.36483740  0.71736949    -0.38200
N840        N  0.17944548  0.43379123  0.67057983    -0.39900
C841        C  0.33832856  0.38630582  0.73883347    -0.04800
C842        C  0.36614017  0.38161926  0.73171784     0.09300
C843        C  0.37459060  0.35546048  0.72058808    -0.02200
C844        C  0.35531693  0.33401639  0.71641084    -0.00500
C845        C  0.32757445  0.33803382  0.72501048    -0.04100
C846        C  0.31910002  0.36445487  0.73586860     0.02900
C847        C  0.38731639  0.40335490  0.73770777     0.09800
C848        C  0.40350298  0.35026500  0.71472218     0.35700
C849        C  0.29108546  0.36874568  0.74562333     0.39100
C850        C  0.40024599  0.40436236  0.76567772    -0.04500
C851        C  0.42336775  0.42139464  0.77024314     0.02700
C852        C  0.43340392  0.43781357  0.74697293    -0.04100
C853        C  0.42009295  0.43736703  0.71918085    -0.00300
C854        C  0.39708114  0.42006828  0.71452850    -0.02900
C855        C  0.39072950  0.38652318  0.78921856     0.36400
C856        C  0.43089536  0.45365632  0.69509293     0.40000
C857        C  0.43805396  0.42054551  0.79828492     0.39100
C858        C  0.38430645  0.41825032  0.68554558     0.36100
C859        C  0.32978214  0.41334099  0.75016524     0.36800
C860        C  0.36427050  0.30784862  0.70310519     0.40000
N861        N  0.45000508  0.41968503  0.82048550    -0.38100
N862        N  0.38316884  0.37218046  0.80790705    -0.39700
N863        N  0.43961382  0.46659112  0.67586808    -0.37400
N864        N  0.37419690  0.41658173  0.66238768    -0.39800
N865        N  0.42661132  0.34619479  0.71044477    -0.39600
N866        N  0.37156256  0.28706231  0.69251917    -0.37200
N867        N  0.26874624  0.37205366  0.75351747    -0.38200
N868        N  0.32294293  0.43491371  0.75922731    -0.39900
C869        C  0.86972544  0.85052789  0.66693333    -0.04800
C870        C  0.89071270  0.84837113  0.68849127     0.09300
C871        C  0.88985299  0.82701765  0.70968866    -0.02200
C872        C  0.86733322  0.80867079  0.71040843    -0.00500
C873        C  0.84582891  0.81075825  0.68897245    -0.04100
C874        C  0.84758607  0.83163959  0.66683163     0.02900
C875        C  0.91308593  0.86955106  0.68979123     0.09800
C876        C  0.91213866  0.82424962  0.73113160     0.35700
C877        C  0.82687606  0.83383347  0.64360923     0.39100
C878        C  0.91224638  0.89100255  0.71119616    -0.04500
C879        C  0.93291355  0.91142666  0.71210737     0.02700
C880        C  0.95402835  0.91107669  0.69097766    -0.04100
C881        C  0.95496027  0.88945495  0.66968544    -0.00300
C882        C  0.93489678  0.86834176  0.66960626    -0.02900
C883        C  0.89012364  0.89194335  0.73237582     0.36400
C884        C  0.97642269  0.88905629  0.64776117     0.40000
C885        C  0.93263826  0.93269850  0.73499347     0.39100
C886        C  0.93692989  0.84500172  0.64924195     0.36100
C887        C  0.87076741  0.87258542  0.64506240     0.36800
C888        C  0.86610194  0.78885598  0.73443521     0.40000
N889        N  0.93249805  0.94966868  0.75323304    -0.38100
N890        N  0.87253729  0.89255832  0.74933362    -0.39700
N891        N  0.99359741  0.88870353  0.63032260    -0.37400
N892        N  0.93862562  0.82618745  0.63324403    -0.39800
N893        N  0.92991239  0.82204773  0.74818740    -0.39600
N894        N  0.86593722  0.77350602  0.75407165    -0.37200
N895        N  0.81037312  0.83574644  0.62510346    -0.38200
N896        N  0.87167292  0.89017201  0.62763724    -0.39900
C897        C  0.91983353  0.09326308  0.66397136    -0.04800
C898        C  0.89967898  0.09377618  0.68620531     0.09300
C899        C  0.90175431  0.07448470  0.70973203    -0.02200
C900        C  0.92410405  0.05549053  0.71144527    -0.00500
C901        C  0.94440155  0.05523615  0.68943062    -0.04100
C902        C  0.94196462  0.07394067  0.66547966     0.02900
C903        C  0.87674868  0.11517384  0.68549733     0.09800
C904        C  0.88084876  0.07424177  0.73228118     0.35700
C905        C  0.96215916  0.07306574  0.64223320     0.39100
C906        C  0.85517247  0.11333301  0.66449337    -0.04500
C907        C  0.83349037  0.13326838  0.66425677     0.02700
C908        C  0.83252627  0.15494460  0.68576964    -0.04100
C909        C  0.85442043  0.15663165  0.70676986    -0.00300
C910        C  0.87644135  0.13716059  0.70629671    -0.02900
C911        C  0.85513986  0.09062947  0.64320021     0.36400
C912        C  0.85431033  0.17759003  0.72989415     0.40000
C913        C  0.81261474  0.13164656  0.64118939     0.39100
C914        C  0.89883140  0.13956216  0.72763902     0.36100
C915        C  0.91787725  0.11274051  0.63958194     0.36800
C916        C  0.92642420  0.03632955  0.73609144     0.40000
N917        N  0.79601042  0.13033275  0.62274584    -0.38100
N918        N  0.85519526  0.07258825  0.62613838    -0.39700
N919        N  0.85510312  0.19387981  0.74876648    -0.37400
N920        N  0.91655104  0.14137467  0.74478934    -0.39800
N921        N  0.86423167  0.07419867  0.75033075    -0.39600
N922        N  0.92831530  0.02102176  0.75573446    -0.37200
N923        N  0.97828618  0.07228357  0.62369214    -0.38200
N924        N  0.91615811  0.12813541  0.61999716    -0.39900
C925        C  0.11094993  0.10174718  0.67968189    -0.04800
C926        C  0.12435531  0.10888025  0.70644496     0.09300
C927        C  0.11920489  0.09318561  0.73210503    -0.02200
C928        C  0.10033534  0.07092311  0.73115254    -0.00500
C929        C  0.08702325  0.06378761  0.70439444    -0.04100
C930        C  0.09245435  0.07917556  0.67863697     0.02900
C931        C  0.14318804  0.13355629  0.70778092     0.09800
C932        C  0.13335152  0.10002640  0.75948389     0.35700
C933        C  0.07882723  0.07179836  0.65110504     0.39100
C934        C  0.13423387  0.15878780  0.72083681    -0.04500
C935        C  0.15145332  0.18240599  0.72121103     0.02700
C936        C  0.17773155  0.18118332  0.70809940    -0.04100
C937        C  0.18699028  0.15554956  0.69582668    -0.00300
C938        C  0.16976773  0.13186915  0.69571567    -0.02900
C939        C  0.10714032  0.16043119  0.73385296     0.36400
C940        C  0.21390631  0.15361266  0.68249009     0.40000
C941        C  0.14233593  0.20762125  0.73613913     0.39100
C942        C  0.17926746  0.10568697  0.68303394     0.36100
C943        C  0.11600693  0.11785012  0.65327948     0.36800
C944        C  0.09407196  0.05572545  0.75782240     0.40000
N945        N  0.13481087  0.22749146  0.74831352    -0.38100
N946        N  0.08559020  0.16161164  0.74436033    -0.39700
N947        N  0.23539200  0.15197558  0.67188620    -0.37400
N948        N  0.18667727  0.08475551  0.67288072    -0.39800
N949        N  0.14466458  0.10556903  0.78129446    -0.39600
N950        N  0.08890904  0.04369425  0.77912276    -0.37200
N951        N  0.06791011  0.06584939  0.62918494    -0.38200
N952        N  0.12013957  0.13065653  0.63220714    -0.39900
C953        C  0.22520985  0.64621932  0.60799845    -0.04800
C954        C  0.21476219  0.65649354  0.58091676     0.09300
C955        C  0.21898824  0.68462655  0.57297408    -0.02200
C956        C  0.23302292  0.70262571  0.59250010    -0.00500
C957        C  0.24288730  0.69245399  0.61977897    -0.04100
C958        C  0.23986877  0.66401035  0.62707664     0.02900
C959        C  0.20144548  0.63670299  0.55994665     0.09800
C960        C  0.20844922  0.69513221  0.54507163     0.35700
C961        C  0.25095741  0.65328415  0.65471729     0.39100
C962        C  0.17254906  0.63624082  0.55628328    -0.04500
C963        C  0.16028080  0.61557689  0.53830336     0.02700
C964        C  0.17685394  0.59470941  0.52532586    -0.04100
C965        C  0.20570765  0.59526168  0.52909942    -0.00300
C966        C  0.21799600  0.61667592  0.54561479    -0.02900
C967        C  0.15552688  0.65635024  0.57179990     0.36400
C968        C  0.22271503  0.57331845  0.51644817     0.40000
C969        C  0.13075628  0.61543594  0.53350542     0.39100
C970        C  0.24773927  0.61777325  0.54853908     0.36100
C971        C  0.22006800  0.61750192  0.61655533     0.36800
C972        C  0.23757749  0.73159694  0.58463863     0.40000
N973        N  0.10718971  0.61542448  0.52958882    -0.38100
N974        N  0.14196084  0.67232589  0.58431335    -0.39700
N975        N  0.23613812  0.55564927  0.50652168    -0.37400
N976        N  0.27142999  0.61872716  0.55100444    -0.39800
N977        N  0.19986888  0.70364979  0.52292257    -0.39600
N978        N  0.24152938  0.75467724  0.57847245    -0.37200
N979        N  0.25998970  0.64465264  0.67662183    -0.38200
N980        N  0.21578013  0.59462762  0.62326933    -0.39900
C981        C  0.40877963  0.76424152  0.57128196    -0.04800
C982        C  0.40723392  0.78836659  0.58915481     0.09300
C983        C  0.42325117  0.81198975  0.58290886    -0.02200
C984        C  0.44048859  0.81166948  0.55825871    -0.00500
C985        C  0.44180734  0.78761194  0.54025395    -0.04100
C986        C  0.42610393  0.76385074  0.54683547     0.02900
C987        C  0.38849788  0.78829694  0.61459485     0.09800
C988        C  0.42244432  0.83619538  0.60220748     0.35700
C989        C  0.42843424  0.73877737  0.52890426     0.39100
C990        C  0.39777449  0.77727362  0.64170090    -0.04500
C991        C  0.37876510  0.77121656  0.66383190     0.02700
C992        C  0.35034777  0.77609175  0.65865467    -0.04100
C993        C  0.34141210  0.78885992  0.63203612    -0.00300
C994        C  0.36053655  0.79496107  0.61007910    -0.02900
C995        C  0.42669627  0.77046175  0.64593206     0.36400
C996        C  0.31248418  0.79513874  0.62679329     0.40000
C997        C  0.38837690  0.75785683  0.69078895     0.39100
C998        C  0.35133583  0.80665828  0.58212059     0.36100
C999        C  0.39292625  0.73963776  0.57853779     0.36800
C1000       C  0.45715235  0.83580332  0.55152516     0.40000
N1001       N  0.39606789  0.74703726  0.71217275    -0.38100
N1002       N  0.44975082  0.76493366  0.64913932    -0.39700
N1003       N  0.28940934  0.79991264  0.62248853    -0.37400
N1004       N  0.34403968  0.81588779  0.55977920    -0.39800
N1005       N  0.42201432  0.85544903  0.61771824    -0.39600
N1006       N  0.47049302  0.85499069  0.54601642    -0.37200
N1007       N  0.43047957  0.71872709  0.51472595    -0.38200
N1008       N  0.38033183  0.72006989  0.58455593    -0.39900
C1009       C  0.35265863  0.63738143  0.75401804    -0.04800
C1010       C  0.37539599  0.63393885  0.73503304     0.09300
C1011       C  0.37845490  0.65290307  0.71139312    -0.02200
C1012       C  0.35875764  0.67427757  0.70642174    -0.00500
C1013       C  0.33790206  0.67943238  0.72718261    -0.04100
C1014       C  0.33485959  0.66082608  0.75098858     0.02900
C1015       C  0.39636443  0.61083818  0.74008540     0.09800
C1016       C  0.40246711  0.65123632  0.69277211     0.35700
C1017       C  0.31309608  0.66556445  0.77202846     0.39100
C1018       C  0.40066829  0.58986147  0.71843723    -0.04500
C1019       C  0.42230411  0.57011823  0.72178553     0.02700
C1020       C  0.43843606  0.56962467  0.74784323    -0.04100
C1021       C  0.43328892  0.58958466  0.77015583    -0.00300
C1022       C  0.41298303  0.61056941  0.76595831    -0.02900
C1023       C  0.38288562  0.58864694  0.69257251     0.36400
C1024       C  0.44952475  0.58896270  0.79719836     0.40000
C1025       C  0.42862969  0.55095880  0.69794855     0.39100
C1026       C  0.40988631  0.63244086  0.78792496     0.36100
C1027       C  0.34742911  0.61667345  0.77650425     0.36800
C1028       C  0.35988376  0.69082984  0.67971625     0.40000
N1029       N  0.43389666  0.53588489  0.67879336    -0.38100
N1030       N  0.36872371  0.58775967  0.67190669    -0.39700
N1031       N  0.46243448  0.58832484  0.81879048    -0.37400
N1032       N  0.40739013  0.64983464  0.80550650    -0.39800
N1033       N  0.42166741  0.65006023  0.67797728    -0.39600
N1034       N  0.36042908  0.70344329  0.65800251    -0.37200
N1035       N  0.29575950  0.66944530  0.78884522    -0.38200
N1036       N  0.34321977  0.60006777  0.79436672    -0.39900
C1037       C  0.18172148  0.84835388  0.69645590    -0.04800
C1038       C  0.15311178  0.84621779  0.70069317     0.09300
C1039       C  0.14145134  0.81964102  0.70500846    -0.02200
C1040       C  0.15823905  0.79540203  0.70539435    -0.00500
C1041       C  0.18720408  0.79753245  0.70266579    -0.04100
C1042       C  0.19869872  0.82417471  0.69736979     0.02900
C1043       C  0.13492270  0.87179494  0.70003230     0.09800
C1044       C  0.11207279  0.81732089  0.70972637     0.35700
C1045       C  0.22778935  0.82661304  0.69125500     0.39100
C1046       C  0.11865484  0.87770837  0.67479308    -0.04500
C1047       C  0.09922403  0.89979134  0.67522294     0.02700
C1048       C  0.09653269  0.91684397  0.70056378    -0.04100
C1049       C  0.11380652  0.91182004  0.72529891    -0.00300
C1050       C  0.13271408  0.88917624  0.72515073    -0.02900
C1051       C  0.12181524  0.86083199  0.64842284     0.36400
C1052       C  0.11143560  0.92937261  0.75126100     0.40000
C1053       C  0.08131729  0.90446547  0.64987645     0.39100
C1054       C  0.14941143  0.88320927  0.75111278     0.36100
C1055       C  0.19362291  0.87553861  0.69105461     0.36800
C1056       C  0.14536495  0.76836725  0.70879109     0.40000
N1057       N  0.06676985  0.90806797  0.62984389    -0.38100
N1058       N  0.12447848  0.84742483  0.62735726    -0.39700
N1059       N  0.10960632  0.94343840  0.77195856    -0.37400
N1060       N  0.16279560  0.87832931  0.77176106    -0.39800
N1061       N  0.08867805  0.81546012  0.71361990    -0.39600
N1062       N  0.13471043  0.74694260  0.71102488    -0.37200
N1063       N  0.25093881  0.82856430  0.68605106    -0.38200
N1064       N  0.20303186  0.89729463  0.68681048    -0.39900
C1065       C  0.12610785  0.65673301  0.86003100    -0.04800
C1066       C  0.12711266  0.68216385  0.84449427     0.09300
C1067       C  0.11029635  0.70495233  0.85264865    -0.02200
C1068       C  0.09224867  0.70224862  0.87633411    -0.00500
C1069       C  0.09104876  0.67671413  0.89177372    -0.04100
C1070       C  0.10814725  0.65406225  0.88385407     0.02900
C1071       C  0.14731456  0.68586604  0.82073815     0.09800
C1072       C  0.11191428  0.73121489  0.83679144     0.35700
C1073       C  0.10721779  0.62814639  0.90031226     0.39100
C1074       C  0.13918944  0.68268947  0.79108085    -0.04500
C1075       C  0.15759028  0.68930702  0.76851189     0.02700
C1076       C  0.18417769  0.69962118  0.77574619    -0.04100
C1077       C  0.19281635  0.70044414  0.80576554    -0.00300
C1078       C  0.17418059  0.69418296  0.82811727    -0.02900
C1079       C  0.11150285  0.67352189  0.78388129     0.36400
C1080       C  0.22100841  0.70704701  0.81398370     0.40000
C1081       C  0.14864710  0.68573214  0.73810087     0.39100
C1082       C  0.18224980  0.69724123  0.85888757     0.36100
C1083       C  0.14363461  0.63348576  0.85148982     0.36800
C1084       C  0.07517689  0.72579059  0.88508586     0.40000
N1085       N  0.14147636  0.68248011  0.71391518    -0.38100
N1086       N  0.08941203  0.66633125  0.77807730    -0.39700
N1087       N  0.24342686  0.71230798  0.82070373    -0.37400
N1088       N  0.18845788  0.69976810  0.88345210    -0.39800
N1089       N  0.11337207  0.75205535  0.82401278    -0.39600
N1090       N  0.06171708  0.74468428  0.89206703    -0.37200
N1091       N  0.10651413  0.60755750  0.91361435    -0.38200
N1092       N  0.15765406  0.61498184  0.84460949    -0.39900
C1093       C  0.91054234  0.67364508  0.86017188    -0.04800
C1094       C  0.91432619  0.69801706  0.84323673     0.09300
C1095       C  0.93712960  0.71532646  0.84878471    -0.02200
C1096       C  0.95566116  0.70874039  0.87184695    -0.00500
C1097       C  0.95220724  0.68406521  0.88845575    -0.04100
C1098       C  0.92980752  0.66632849  0.88229303     0.02900
C1099       C  0.89414386  0.70502014  0.81938407     0.09800
C1100       C  0.94166463  0.73965606  0.83051310     0.35700
C1101       C  0.92681653  0.64041137  0.89841243     0.39100
C1102       C  0.87295361  0.72462879  0.82457925    -0.04500
C1103       C  0.85137632  0.72789664  0.80384910     0.02700
C1104       C  0.85098143  0.71147631  0.77782197    -0.04100
C1105       C  0.87308323  0.69295524  0.77201686    -0.00300
C1106       C  0.89480444  0.69009522  0.79258440    -0.02900
C1107       C  0.87311960  0.74101469  0.85155742     0.36400
C1108       C  0.87353369  0.67677115  0.74491245     0.40000
C1109       C  0.82906761  0.74728778  0.81006713     0.39100
C1110       C  0.91788921  0.67169457  0.78636415     0.36100
C1111       C  0.88664646  0.65625031  0.85484622     0.36800
C1112       C  0.97812519  0.72751441  0.87882664     0.40000
N1113       N  0.81145952  0.76289839  0.81522716    -0.38100
N1114       N  0.87334474  0.75423357  0.87296975    -0.39700
N1115       N  0.87381049  0.66373372  0.72338176    -0.37400
N1116       N  0.93644959  0.65720185  0.78142962    -0.39800
N1117       N  0.94540830  0.75897109  0.81582418    -0.39600
N1118       N  0.99604568  0.74242388  0.88459364    -0.37200
N1119       N  0.92442753  0.61960607  0.91106322    -0.38200
N1120       N  0.86747344  0.64258193  0.85047908    -0.39900
C1121       C  0.77301894  0.87969788  0.85034959    -0.04800
C1122       C  0.74979354  0.86994155  0.83451780     0.09300
C1123       C  0.72336789  0.88002263  0.84175740    -0.02200
C1124       C  0.72018083  0.90008206  0.86435799    -0.00500
C1125       C  0.74350062  0.91086974  0.87920062    -0.04100
C1126       C  0.76988611  0.90020523  0.87254317     0.02900
C1127       C  0.75311723  0.84991183  0.80931258     0.09800
C1128       C  0.69955641  0.87014007  0.82535561     0.35700
C1129       C  0.79373034  0.91030191  0.88875738     0.39100
C1130       C  0.75050439  0.82084781  0.81366792    -0.04500
C1131       C  0.75267317  0.80215888  0.78958140     0.02700
C1132       C  0.75813846  0.81238482  0.76104409    -0.04100
C1133       C  0.76101045  0.84158694  0.75686239    -0.00300
C1134       C  0.75792198  0.86023653  0.78077781    -0.02900
C1135       C  0.74537991  0.81025193  0.84298515     0.36400
C1136       C  0.76848420  0.85251928  0.72825900     0.40000
C1137       C  0.74850935  0.77250662  0.79412639     0.39100
C1138       C  0.75939107  0.89019544  0.77605060     0.36100
C1139       C  0.80013895  0.86882052  0.84357573     0.36800
C1140       C  0.69291488  0.90957641  0.87246069     0.40000
N1141       N  0.74504857  0.74889901  0.79805898    -0.38100
N1142       N  0.74129258  0.80182659  0.86640002    -0.39700
N1143       N  0.77465357  0.86134243  0.70556793    -0.37400
N1144       N  0.76030038  0.91410904  0.77235604    -0.39800
N1145       N  0.68072301  0.86220911  0.81201346    -0.39600
N1146       N  0.67110805  0.91693039  0.87906801    -0.37200
N1147       N  0.81260552  0.91832907  0.90196958    -0.38200
N1148       N  0.82181311  0.86014636  0.83826676    -0.39900
C1149       C  0.74015254  0.14902177  0.80880173    -0.04800
C1150       C  0.74197774  0.11998641  0.80329594     0.09300
C1151       C  0.74383010  0.11024147  0.77402562    -0.02200
C1152       C  0.74481700  0.12934561  0.75044020    -0.00500
C1153       C  0.74380574  0.15853562  0.75588703    -0.04100
C1154       C  0.74076571  0.16824042  0.78515486     0.02900
C1155       C  0.74232470  0.09939018  0.82819916     0.09800
C1156       C  0.74554674  0.08041031  0.76828979     0.35700
C1157       C  0.73759250  0.19792439  0.79089701     0.39100
C1158       C  0.71742780  0.08882334  0.83909921    -0.04500
C1159       C  0.71778118  0.06773599  0.86081877     0.02700
C1160       C  0.74302387  0.05755432  0.87238790    -0.04100
C1161       C  0.76795529  0.06863870  0.86201199    -0.00300
C1162       C  0.76760234  0.08926882  0.83974979    -0.02900
C1163       C  0.69144410  0.09977128  0.82795880     0.36400
C1164       C  0.79391397  0.05902068  0.87450141     0.40000
C1165       C  0.69215130  0.05633427  0.87129106     0.39100
C1166       C  0.79321319  0.10010858  0.82855625     0.36100
C1167       C  0.73825967  0.15905730  0.83889712     0.36800
C1168       C  0.74830900  0.11879980  0.72066557     0.40000
N1169       N  0.67178716  0.04703544  0.87965782    -0.38100
N1170       N  0.67073214  0.10869522  0.81918793    -0.39700
N1171       N  0.81465565  0.05150895  0.88458206    -0.37400
N1172       N  0.81355897  0.10881793  0.81946017    -0.39800
N1173       N  0.74700570  0.05661458  0.76377902    -0.39600
N1174       N  0.75109531  0.11039116  0.69693111    -0.37200
N1175       N  0.73485640  0.22157025  0.79566432    -0.38200
N1176       N  0.73686746  0.16699474  0.86295990    -0.39900
C1177       C  0.86153153  0.24490789  0.82076397    -0.04800
C1178       C  0.88550264  0.25922651  0.81261200     0.09300
C1179       C  0.88783854  0.27000655  0.78385532    -0.02200
C1180       C  0.86555133  0.26793753  0.76384395    -0.00500
C1181       C  0.84111904  0.25459844  0.77240947    -0.04100
C1182       C  0.83968490  0.24192660  0.80043615     0.02900
C1183       C  0.90798171  0.26330314  0.83475830     0.09800
C1184       C  0.91323177  0.28304562  0.77491404     0.35700
C1185       C  0.81585644  0.22572451  0.80849887     0.39100
C1186       C  0.92494229  0.24051852  0.84315430    -0.04500
C1187       C  0.94415033  0.24362097  0.86635878     0.02700
C1188       C  0.94703637  0.26974948  0.88048958    -0.04100
C1189       C  0.93054116  0.29268938  0.87168164    -0.00300
C1190       C  0.91088237  0.28943261  0.84897390    -0.02900
C1191       C  0.92226896  0.21383152  0.82813704     0.36400
C1192       C  0.93351691  0.31946502  0.88648389     0.40000
C1193       C  0.96022111  0.21977390  0.87649456     0.39100
C1194       C  0.89315523  0.31274138  0.84072942     0.36100
C1195       C  0.85919302  0.23372776  0.85034758     0.36800
C1196       C  0.86815439  0.27838974  0.73403304     0.40000
N1197       N  0.97281453  0.20069192  0.88486082    -0.38100
N1198       N  0.92002964  0.19257971  0.81610383    -0.39700
N1199       N  0.93596578  0.34073589  0.89843132    -0.37400
N1200       N  0.87902490  0.33134602  0.83416085    -0.39800
N1201       N  0.93354295  0.29336451  0.76779223    -0.39600
N1202       N  0.87025511  0.28647208  0.71015203    -0.37200
N1203       N  0.79726967  0.21228867  0.81517686    -0.38200
N1204       N  0.85747148  0.22487725  0.87396390    -0.39900
C1205       C  0.11735976  0.26578809  0.85645910    -0.04800
C1206       C  0.12935733  0.29114938  0.84766157     0.09300
C1207       C  0.12122259  0.31656976  0.86086782    -0.02200
C1208       C  0.10077261  0.31667689  0.88259846    -0.00500
C1209       C  0.08804383  0.29142696  0.89062344    -0.04100
C1210       C  0.09670888  0.26592130  0.87789629     0.02900
C1211       C  0.14834167  0.29108878  0.82218201     0.09800
C1212       C  0.13313327  0.34262574  0.85114700     0.35700
C1213       C  0.08403383  0.23989488  0.88657963     0.39100
C1214       C  0.13736663  0.29454761  0.79360361    -0.04500
C1215       C  0.15412187  0.29032918  0.76892100     0.02700
C1216       C  0.18206371  0.28182242  0.77276358    -0.04100
C1217       C  0.19352947  0.28111816  0.80162672    -0.00300
C1218       C  0.17659295  0.28549149  0.82625897    -0.02900
C1219       C  0.10834235  0.30121064  0.78968430     0.36400
C1220       C  0.22280723  0.27666183  0.80618304     0.40000
C1221       C  0.14181956  0.29366712  0.73978924     0.39100
C1222       C  0.18801812  0.28363487  0.85587102     0.36100
C1223       C  0.12557028  0.23972531  0.84249511     0.36800
C1224       C  0.09237318  0.34276291  0.89628306     0.40000
N1225       N  0.13185777  0.29649963  0.71667481    -0.38100
N1226       N  0.08519654  0.30643924  0.78670605    -0.39700
N1227       N  0.24614270  0.27328857  0.81025132    -0.37400
N1228       N  0.19714750  0.28218846  0.87949865    -0.39800
N1229       N  0.14254686  0.36337575  0.84313047    -0.39600
N1230       N  0.08573284  0.36354652  0.90733313    -0.37200
N1231       N  0.07387617  0.21914834  0.89348565    -0.38200
N1232       N  0.13217337  0.21906288  0.83116369    -0.39900
C1233       C  0.27365271  0.08358117  0.83156557    -0.04800
C1234       C  0.29010326  0.10689638  0.83830794     0.09300
C1235       C  0.30798658  0.10660123  0.86294260    -0.02200
C1236       C  0.30796198  0.08364515  0.88210574    -0.00500
C1237       C  0.28926385  0.06163515  0.87714142    -0.04100
C1238       C  0.27310255  0.06091194  0.85109486     0.02900
C1239       C  0.28754415  0.13241580  0.82017348     0.09800
C1240       C  0.32520674  0.13057676  0.86933532     0.35700
C1241       C  0.25486191  0.03764267  0.84517394     0.39100
C1242       C  0.26643624  0.15185489  0.82598486    -0.04500
C1243       C  0.26358466  0.17592943  0.80850195     0.02700
C1244       C  0.28177567  0.18045110  0.78476143    -0.04100
C1245       C  0.30371709  0.16117247  0.77998608    -0.00300
C1246       C  0.30625838  0.13708924  0.79747866    -0.02900
C1247       C  0.24758820  0.14691616  0.85000440     0.36400
C1248       C  0.32393272  0.16561200  0.75726095     0.40000
C1249       C  0.24247960  0.19629246  0.81598270     0.39100
C1250       C  0.32793900  0.11672699  0.79199885     0.36100
C1251       C  0.25636848  0.08363306  0.80526077     0.36800
C1252       C  0.32612024  0.08322624  0.90772572     0.40000
N1253       N  0.22548918  0.21215031  0.82247132    -0.38100
N1254       N  0.23254753  0.14291405  0.86908860    -0.39700
N1255       N  0.34064422  0.16889361  0.73969084    -0.37400
N1256       N  0.34510679  0.10036008  0.78776063    -0.39800
N1257       N  0.33879420  0.14981266  0.87439394    -0.39600
N1258       N  0.34068233  0.08290022  0.92809176    -0.37200
N1259       N  0.24050088  0.01895828  0.84030419    -0.38200
N1260       N  0.24259374  0.08378237  0.78427715    -0.39900
C1261       C  0.26281177  0.88987804  0.85642278    -0.04800
C1262       C  0.27989840  0.86781014  0.86668213     0.09300
C1263       C  0.29572725  0.87124576  0.89269669    -0.02200
C1264       C  0.29464909  0.89669862  0.90823956    -0.00500
C1265       C  0.27681940  0.91833541  0.89855878    -0.04100
C1266       C  0.26068739  0.91478326  0.87279709     0.02900
C1267       C  0.28056223  0.84080335  0.85018991     0.09800
C1268       C  0.31272360  0.84843252  0.90376588     0.35700
C1269       C  0.24103325  0.93623065  0.86387552     0.39100
C1270       C  0.30405428  0.83301611  0.83413546    -0.04500
C1271       C  0.30331753  0.80941373  0.81552914     0.02700
C1272       C  0.27856158  0.79417008  0.81186973    -0.04100
C1273       C  0.25557901  0.80113734  0.82941911    -0.00300
C1274       C  0.25688442  0.82397469  0.84900920    -0.02900
C1275       C  0.32864322  0.85003518  0.83574831     0.36400
C1276       C  0.23025490  0.78536671  0.82706180     0.40000
C1277       C  0.32769557  0.80214832  0.79889715     0.39100
C1278       C  0.23350457  0.83083267  0.86737477     0.36100
C1279       C  0.24714614  0.88679263  0.82916210     0.36800
C1280       C  0.31149035  0.90050221  0.93456045     0.40000
N1281       N  0.34724486  0.79638314  0.78582501    -0.38100
N1282       N  0.34829277  0.86350774  0.83716533    -0.39700
N1283       N  0.20978688  0.77324657  0.82525261    -0.37400
N1284       N  0.21492299  0.83649180  0.88199845    -0.39800
N1285       N  0.32638981  0.83029582  0.91255315    -0.39600
N1286       N  0.32476247  0.90357879  0.95565013    -0.37200
N1287       N  0.22516374  0.95318854  0.85688268    -0.38200
N1288       N  0.23459266  0.88421683  0.80749560    -0.39900
C1289       C  0.38847399  0.76803944  0.36816535    -0.04800
C1290       C  0.38312711  0.78981968  0.34790100     0.09300
C1291       C  0.39813278  0.81499547  0.34995771    -0.02200
C1292       C  0.41916641  0.81783540  0.37139621    -0.00500
C1293       C  0.42545576  0.79540494  0.39045419    -0.04100
C1294       C  0.40927242  0.77104357  0.38970746     0.02900
C1295       C  0.36360284  0.78501157  0.32274764     0.09800
C1296       C  0.39287966  0.83734460  0.32903996     0.35700
C1297       C  0.41454191  0.74877267  0.41075275     0.39100
C1298       C  0.33501120  0.78332659  0.32746726    -0.04500
C1299       C  0.31710008  0.77583647  0.30407134     0.02700
C1300       C  0.32755724  0.77154073  0.27545945    -0.04100
C1301       C  0.35614210  0.77453942  0.27060256    -0.00300
C1302       C  0.37411513  0.78019657  0.29435513    -0.02900
C1303       C  0.32413540  0.78892528  0.35654568     0.36400
C1304       C  0.36751584  0.77013303  0.24147232     0.40000
C1305       C  0.28795186  0.77290672  0.30952382     0.39100
C1306       C  0.40365507  0.77958939  0.28992186     0.36100
C1307       C  0.37376338  0.74183049  0.36566812     0.36800
C1308       C  0.43449484  0.84364646  0.37383231     0.40000
N1309       N  0.26474968  0.77055934  0.31423864    -0.38100
N1310       N  0.31549047  0.79335588  0.37976506    -0.39700
N1311       N  0.37664666  0.76665252  0.21829619    -0.37400
N1312       N  0.42720863  0.77887767  0.28656674    -0.39800
N1313       N  0.38896045  0.85500858  0.31208003    -0.39600
N1314       N  0.44660224  0.86431084  0.37600213    -0.37200
N1315       N  0.41867882  0.73123407  0.42780034    -0.38200
N1316       N  0.36210141  0.72089766  0.36355913    -0.39900
C1317       C  0.16562763  0.60685170  0.34311101    -0.04800
C1318       C  0.19253799  0.60247199  0.33270225     0.09300
C1319       C  0.20775001  0.57876830  0.34154118    -0.02200
C1320       C  0.19696571  0.56057630  0.36266225    -0.00500
C1321       C  0.17090076  0.56618823  0.37509669    -0.04100
C1322       C  0.15480381  0.58874416  0.36436875     0.02900
C1323       C  0.20596395  0.62451348  0.31510433     0.09800
C1324       C  0.23508191  0.57397710  0.32993583     0.35700
C1325       C  0.12787422  0.59427838  0.37657699     0.39100
C1326       C  0.21809413  0.64746693  0.32977759    -0.04500
C1327       C  0.22866995  0.66972338  0.31339663     0.02700
C1328       C  0.22670495  0.66916442  0.28241950    -0.04100
C1329       C  0.21661199  0.64524506  0.26770335    -0.00300
C1330       C  0.20622746  0.62283555  0.28410822    -0.02900
C1331       C  0.21891707  0.64851752  0.36175025     0.36400
C1332       C  0.21703678  0.64375269  0.23576442     0.40000
C1333       C  0.24053332  0.69367400  0.32842773     0.39100
C1334       C  0.19533154  0.59834212  0.26926233     0.36100
C1335       C  0.14966114  0.63073093  0.33283088     0.36800
C1336       C  0.21343697  0.53696619  0.37262302     0.40000
N1337       N  0.25010299  0.71265071  0.34053447    -0.38100
N1338       N  0.21953065  0.64940846  0.38724303    -0.39700
N1339       N  0.21757343  0.64248634  0.21029589    -0.37400
N1340       N  0.18672878  0.57869142  0.25751883    -0.39800
N1341       N  0.25685852  0.57024788  0.32061299    -0.39600
N1342       N  0.22665977  0.51803417  0.38016363    -0.37200
N1343       N  0.10649245  0.59885805  0.38651092    -0.38200
N1344       N  0.13702009  0.64980729  0.32452867    -0.39900
C1345       C  0.34438752  0.63305028  0.18197473    -0.04800
C1346       C  0.36800548  0.63228766  0.20037842     0.09300
C1347       C  0.37149373  0.65253529  0.22275965    -0.02200
C1348       C  0.35214797  0.67425415  0.22578188    -0.00500
C1349       C  0.32978956  0.67631760  0.20585117    -0.04100
C1350       C  0.32553756  0.65543001  0.18430502     0.02900
C1351       C  0.39031889  0.61147090  0.19508535     0.09800
C1352       C  0.39518614  0.65120101  0.24249672     0.35700
C1353       C  0.30240659  0.65759094  0.16389409     0.39100
C1354       C  0.40850786  0.61549823  0.17148630    -0.04500
C1355       C  0.43116691  0.59738597  0.16782284     0.02700
C1356       C  0.43576012  0.57523121  0.18785734    -0.04100
C1357       C  0.41771992  0.57151369  0.21171951    -0.00300
C1358       C  0.39479760  0.58930914  0.21502519    -0.02900
C1359       C  0.40403390  0.63856378  0.15120738     0.36400
C1360       C  0.42311220  0.54969163  0.23323107     0.40000
C1361       C  0.44985214  0.60173391  0.14360611     0.39100
C1362       C  0.37589991  0.58504533  0.23908112     0.36100
C1363       C  0.33958049  0.61086173  0.16071790     0.36800
C1364       C  0.35493870  0.69402923  0.24989915     0.40000
N1365       N  0.46489406  0.60548581  0.12446996    -0.38100
N1366       N  0.40029168  0.65692907  0.13505203    -0.39700
N1367       N  0.42749882  0.53231308  0.25039031    -0.37400
N1368       N  0.36083838  0.58174986  0.25829721    -0.39800
N1369       N  0.41396045  0.65002185  0.25838126    -0.39600
N1370       N  0.35727268  0.70922464  0.26963522    -0.37200
N1371       N  0.28401751  0.65949601  0.14756069    -0.38200
N1372       N  0.33555009  0.59305463  0.14391722    -0.39900
C1373       C  0.28425802  0.87934045  0.13506280    -0.04800
C1374       C  0.26973369  0.87736987  0.10809521     0.09300
C1375       C  0.25780093  0.85191345  0.09908743    -0.02200
C1376       C  0.25986208  0.82848929  0.11741014    -0.00500
C1377       C  0.27331360  0.83071978  0.14497202    -0.04100
C1378       C  0.28632822  0.85584121  0.15346231     0.02900
C1379       C  0.26773557  0.90170488  0.08824983     0.09800
C1380       C  0.24335308  0.84988262  0.07097089     0.35700
C1381       C  0.30162475  0.85761302  0.18107096     0.39100
C1382       C  0.29019427  0.90832256  0.07031885    -0.04500
C1383       C  0.28702376  0.92871144  0.04841922     0.02700
C1384       C  0.26116190  0.94169495  0.04394518    -0.04100
C1385       C  0.23906632  0.93596163  0.06268200    -0.00300
C1386       C  0.24252609  0.91624483  0.08527176    -0.02900
C1387       C  0.31622113  0.89355285  0.07388894     0.36400
C1388       C  0.21270040  0.94974676  0.05809622     0.40000
C1389       C  0.31026660  0.93626918  0.03037913     0.39100
C1390       C  0.22010876  0.91037260  0.10508339     0.36100
C1391       C  0.29668617  0.90561219  0.14389697     0.36800
C1392       C  0.24930044  0.80172204  0.10737433     0.40000
N1393       N  0.32885984  0.94242703  0.01616326    -0.38100
N1394       N  0.33693846  0.88175761  0.07688219    -0.39700
N1395       N  0.19167285  0.96074265  0.05432095    -0.37400
N1396       N  0.20233890  0.90566215  0.12102170    -0.39800
N1397       N  0.23167221  0.84833628  0.04865452    -0.39600
N1398       N  0.24117456  0.78027258  0.09939328    -0.37200
N1399       N  0.31409312  0.85903185  0.20291526    -0.38200
N1400       N  0.30659873  0.92659396  0.15082952    -0.39900
C1401       C  0.15687917  0.74125457  0.11647345    -0.04800
C1402       C  0.14160020  0.71637026  0.11928685     0.09300
C1403       C  0.14192794  0.70213442  0.14651178    -0.02200
C1404       C  0.15885290  0.71153179  0.16999467    -0.00500
C1405       C  0.17416737  0.73652604  0.16720536    -0.04100
C1406       C  0.17169867  0.75207906  0.14080448     0.02900
C1407       C  0.12366300  0.70640125  0.09422745     0.09800
C1408       C  0.12425511  0.67816453  0.15062089     0.35700
C1409       C  0.18214322  0.78040003  0.13950652     0.39100
C1410       C  0.12921644  0.68077512  0.07960420    -0.04500
C1411       C  0.11201100  0.67175107  0.05614056     0.02700
C1412       C  0.09011828  0.68895118  0.04619554    -0.04100
C1413       C  0.08549797  0.71508896  0.05986988    -0.00300
C1414       C  0.10108129  0.72298730  0.08478320    -0.02900
C1415       C  0.15241705  0.66356375  0.08886353     0.36400
C1416       C  0.06528279  0.73434256  0.04754689     0.40000
C1417       C  0.11672806  0.64483249  0.04222224     0.39100
C1418       C  0.09328849  0.74780169  0.10127666     0.36100
C1419       C  0.15715385  0.75597739  0.08854351     0.36800
C1420       C  0.16028039  0.69525609  0.19691629     0.40000
N1421       N  0.12043356  0.62336723  0.03104009    -0.38100
N1422       N  0.17079073  0.64969126  0.09639370    -0.39700
N1423       N  0.04961073  0.74988935  0.03721482    -0.37400
N1424       N  0.08695326  0.76745124  0.11459083    -0.39800
N1425       N  0.11007482  0.65912010  0.15388835    -0.39600
N1426       N  0.16110362  0.68220019  0.21835276    -0.37200
N1427       N  0.18972241  0.80327248  0.13876698    -0.38200
N1428       N  0.15733663  0.76774660  0.06629240    -0.39900
C1429       C  0.80126851  0.58964182  0.33742131    -0.04800
C1430       C  0.77574521  0.60238586  0.33027481     0.09300
C1431       C  0.75177952  0.59358162  0.34476722    -0.02200
C1432       C  0.75337990  0.57254276  0.36653851    -0.00500
C1433       C  0.77889218  0.55973419  0.37364842    -0.04100
C1434       C  0.80282089  0.56832993  0.35894835     0.02900
C1435       C  0.77387832  0.62452659  0.30682702     0.09800
C1436       C  0.72540088  0.60603148  0.33698771     0.35700
C1437       C  0.82901325  0.55514005  0.36601393     0.39100
C1438       C  0.76770888  0.61694661  0.27746010    -0.04500
C1439       C  0.76539133  0.63761945  0.25537607     0.02700
C1440       C  0.76898967  0.66634898  0.26245160    -0.04100
C1441       C  0.77501034  0.67388953  0.29199350    -0.00300
C1442       C  0.77776919  0.65301649  0.31397652    -0.02900
C1443       C  0.76360108  0.58771318  0.27002759     0.36400
C1444       C  0.77904452  0.70301636  0.29971282     0.40000
C1445       C  0.75839632  0.62915841  0.22545411     0.39100
C1446       C  0.78490637  0.66072756  0.34401151     0.36100
C1447       C  0.82588486  0.59838281  0.32240188     0.36800
C1448       C  0.72881488  0.56419328  0.38193063     0.40000
N1449       N  0.75291128  0.62232136  0.20161474    -0.38100
N1450       N  0.76029961  0.56439669  0.26415811    -0.39700
N1451       N  0.78223987  0.72625978  0.30596205    -0.37400
N1452       N  0.79078016  0.66672164  0.36799199    -0.39800
N1453       N  0.70435085  0.61589223  0.33062524    -0.39600
N1454       N  0.70930825  0.55760253  0.39443124    -0.37200
N1455       N  0.84987150  0.54450863  0.37167222    -0.38200
N1456       N  0.84550375  0.60541723  0.31038026    -0.39900
C1457       C  0.63389522  0.76754010  0.28492053    -0.04800
C1458       C  0.63599563  0.77405653  0.31515312     0.09300
C1459       C  0.66188368  0.78015479  0.32796933    -0.02200
C1460       C  0.68566383  0.77965220  0.31054385    -0.00500
C1461       C  0.68349118  0.77356793  0.28017250    -0.04100
C1462       C  0.65745855  0.76826493  0.26724204     0.02900
C1463       C  0.61097059  0.77457370  0.33374223     0.09800
C1464       C  0.66406706  0.78616685  0.35927336     0.35700
C1465       C  0.65479020  0.76463892  0.23556627     0.39100
C1466       C  0.60220065  0.74989097  0.34757208    -0.04500
C1467       C  0.58066660  0.75104318  0.36799698     0.02700
C1468       C  0.56780315  0.77687571  0.37444492    -0.04100
C1469       C  0.57572083  0.80132047  0.35957217    -0.00300
C1470       C  0.59707417  0.80009489  0.33894096    -0.02900
C1471       C  0.61563725  0.72345365  0.34098652     0.36400
C1472       C  0.56283854  0.82790984  0.36673958     0.40000
C1473       C  0.57229943  0.72587897  0.38313951     0.39100
C1474       C  0.60498045  0.82509889  0.32326133     0.36100
C1475       C  0.60766028  0.75918977  0.27230232     0.36800
C1476       C  0.71242540  0.78464564  0.32395932     0.40000
N1477       N  0.56566616  0.70585031  0.39533308    -0.38100
N1478       N  0.62631441  0.70239480  0.33548408    -0.39700
N1479       N  0.55255877  0.84904457  0.37275095    -0.37400
N1480       N  0.61110171  0.84503167  0.31059106    -0.39800
N1481       N  0.66576525  0.79085787  0.38426751    -0.39600
N1482       N  0.73382103  0.78856149  0.33457782    -0.37200
N1483       N  0.65266412  0.76210104  0.21026476    -0.38200
N1484       N  0.58681572  0.75202071  0.26241335    -0.39900
C1485       C  0.59463064  0.62436172  0.15283912    -0.04800
C1486       C  0.61825027  0.62159384  0.17091885     0.09300
C1487       C  0.62216277  0.59743195  0.18827672    -0.02200
C1488       C  0.60181180  0.57675038  0.18879719    -0.00500
C1489       C  0.57826066  0.57920277  0.17039478    -0.04100
C1490       C  0.57512513  0.60273217  0.15177845     0.02900
C1491       C  0.63924227  0.64406431  0.17238156     0.09800
C1492       C  0.64724705  0.59395610  0.20563862     0.35700
C1493       C  0.55194302  0.60456789  0.13142946     0.39100
C1494       C  0.64074922  0.66133126  0.19752634    -0.04500
C1495       C  0.66426475  0.67765697  0.20286151     0.02700
C1496       C  0.68534028  0.67884324  0.18155197    -0.04100
C1497       C  0.68249863  0.66310892  0.15508622    -0.00300
C1498       C  0.65983871  0.64530863  0.15092586    -0.02900
C1499       C  0.61835980  0.66142327  0.21841271     0.36400
C1500       C  0.70311350  0.66452419  0.13226015     0.40000
C1501       C  0.66778725  0.69059840  0.23162086     0.39100
C1502       C  0.65821049  0.62738953  0.12509221     0.36100
C1503       C  0.59015572  0.64970373  0.13592457     0.36800
C1504       C  0.60483563  0.55332283  0.20885880     0.40000
N1505       N  0.67056597  0.70023376  0.25488880    -0.38100
N1506       N  0.60032101  0.66159078  0.23482239    -0.39700
N1507       N  0.71965946  0.66546073  0.11416844    -0.37400
N1508       N  0.65696150  0.61305409  0.10452873    -0.39800
N1509       N  0.66736640  0.59129890  0.21927479    -0.39600
N1510       N  0.60729139  0.53473380  0.22497336    -0.37200
N1511       N  0.53345473  0.60594263  0.11517709    -0.38200
N1512       N  0.58643992  0.67003293  0.12263147    -0.39900
C1513       C  0.86719235  0.72647830  0.09465495    -0.04800
C1514       C  0.88811446  0.70795884  0.10422287     0.09300
C1515       C  0.88808472  0.69723539  0.13305487    -0.02200
C1516       C  0.86642778  0.70408544  0.15204411    -0.00500
C1517       C  0.84492418  0.72203229  0.14228650    -0.04100
C1518       C  0.84585040  0.73394736  0.11383493     0.02900
C1519       C  0.91059975  0.70029402  0.08391096     0.09800
C1520       C  0.91036584  0.67910716  0.14303110     0.35700
C1521       C  0.82465266  0.75330978  0.10379896     0.39100
C1522       C  0.93212633  0.71925236  0.07936673    -0.04500
C1523       C  0.95217830  0.71326344  0.05824198     0.02700
C1524       C  0.95128813  0.68777391  0.04247487    -0.04100
C1525       C  0.93031328  0.66831260  0.04787863    -0.00300
C1526       C  0.90982070  0.67466835  0.06847727    -0.02900
C1527       C  0.93353800  0.74487812  0.09654467     0.36400
C1528       C  0.92982548  0.64189413  0.03208286     0.40000
C1529       C  0.97320077  0.73370313  0.05217734     0.39100
C1530       C  0.88787488  0.65499621  0.07375686     0.36100
C1531       C  0.86741405  0.73731343  0.06478415     0.36800
C1532       C  0.86661471  0.69308079  0.18183169     0.40000
N1533       N  0.98970619  0.75033970  0.04747545    -0.38100
N1534       N  0.93461629  0.76518414  0.11044324    -0.39700
N1535       N  0.92952569  0.62085314  0.01941461    -0.37400
N1536       N  0.87041317  0.63927836  0.07810262    -0.39800
N1537       N  0.92819493  0.66466460  0.15085890    -0.39600
N1538       N  0.86677568  0.68430319  0.20557984    -0.37200
N1539       N  0.80819635  0.76905931  0.09536846    -0.38200
N1540       N  0.86767486  0.74580922  0.04092827    -0.39900
C1541       C  0.75691342  0.89026542  0.06987420    -0.04800
C1542       C  0.73204912  0.87925717  0.08045751     0.09300
C1543       C  0.70680802  0.88811609  0.06775054    -0.02200
C1544       C  0.70650075  0.90736408  0.04412914    -0.00500
C1545       C  0.73143267  0.91799577  0.03323561    -0.04100
C1546       C  0.75661499  0.90945693  0.04630984     0.02900
C1547       C  0.73278554  0.85921732  0.10587662     0.09800
C1548       C  0.68119438  0.87797467  0.07957541     0.35700
C1549       C  0.78222196  0.92076371  0.03564746     0.39100
C1550       C  0.73072705  0.86938267  0.13493096    -0.04500
C1551       C  0.73557940  0.85138729  0.15911491     0.02700
C1552       C  0.74296728  0.82288557  0.15441839    -0.04100
C1553       C  0.74263314  0.81232861  0.12517658    -0.00300
C1554       C  0.73763655  0.83045949  0.10107498    -0.02900
C1555       C  0.72444257  0.89873696  0.13983495     0.36400
C1556       C  0.74649176  0.78269269  0.11966462     0.40000
C1557       C  0.73443199  0.86294345  0.18869995     0.39100
C1558       C  0.73762701  0.81961718  0.07118269     0.36100
C1559       C  0.78278292  0.88245107  0.08395370     0.36800
C1560       C  0.68055515  0.91665992  0.03133340     0.40000
N1561       N  0.73352382  0.87228243  0.21223771    -0.38100
N1562       N  0.71935633  0.92215071  0.14359744    -0.39700
N1563       N  0.74920582  0.75909284  0.11464775    -0.37400
N1564       N  0.73746052  0.81096547  0.04733061    -0.39800
N1565       N  0.66077527  0.87003505  0.08923875    -0.39600
N1566       N  0.65984178  0.92416602  0.02117969    -0.37200
N1567       N  0.80259177  0.92985635  0.02704990    -0.38200
N1568       N  0.80333972  0.87631657  0.09541882    -0.39900
C1569       C  0.63695572  0.23786153  0.31441362    -0.04800
C1570       C  0.61642010  0.21723586  0.31218092     0.09300
C1571       C  0.61625087  0.19871865  0.28788740    -0.02200
C1572       C  0.63721765  0.19999375  0.26667539    -0.00500
C1573       C  0.65771238  0.22082560  0.26873861    -0.04100
C1574       C  0.65706081  0.24017556  0.29240955     0.02900
C1575       C  0.59510941  0.21502291  0.33567079     0.09800
C1576       C  0.59434823  0.17847345  0.28463063     0.35700
C1577       C  0.67766931  0.26188633  0.29490316     0.39100
C1578       C  0.57377582  0.23513363  0.33740292    -0.04500
C1579       C  0.55447830  0.23389623  0.36031854     0.02700
C1580       C  0.55583543  0.21202439  0.38119930    -0.04100
C1581       C  0.57725547  0.19194177  0.37951943    -0.00300
C1582       C  0.59696628  0.19359944  0.35699641    -0.02900
C1583       C  0.57191698  0.25729242  0.31568366     0.36400
C1584       C  0.57909974  0.16967561  0.40111254     0.40000
C1585       C  0.53359583  0.25555990  0.36290336     0.39100
C1586       C  0.61958002  0.17366131  0.35610285     0.36100
C1587       C  0.63780299  0.25621909  0.33992880     0.36800
C1588       C  0.63757244  0.17989304  0.24263548     0.40000
N1589       N  0.51698082  0.27287532  0.36509797    -0.38100
N1590       N  0.57062554  0.27498679  0.29836090    -0.39700
N1591       N  0.58063682  0.15201075  0.41845393    -0.37400
N1592       N  0.63770943  0.15785710  0.35536748    -0.39800
N1593       N  0.57680567  0.16241562  0.28188101    -0.39600
N1594       N  0.63806541  0.16373963  0.22359057    -0.37200
N1595       N  0.69390756  0.27938690  0.29688084    -0.38200
N1596       N  0.63842934  0.27070733  0.36039968    -0.39900
C1597       C  0.76185498  0.32253066  0.30752937    -0.04800
C1598       C  0.75739014  0.35161473  0.30447282     0.09300
C1599       C  0.74950527  0.36253570  0.27675360    -0.02200
C1600       C  0.74631755  0.34465083  0.25221198    -0.00500
C1601       C  0.75152579  0.31563343  0.25494579    -0.04100
C1602       C  0.75949992  0.30464595  0.28270683     0.02900
C1603       C  0.76089164  0.37117571  0.33018512     0.09800
C1604       C  0.74392347  0.39225523  0.27376294     0.35700
C1605       C  0.76599796  0.27514214  0.28569791     0.39100
C1606       C  0.78730586  0.38100034  0.33810294    -0.04500
C1607       C  0.79031103  0.40204753  0.35980706     0.02700
C1608       C  0.76692763  0.41346915  0.37372258    -0.04100
C1609       C  0.74054616  0.40340428  0.36605073    -0.00300
C1610       C  0.73755214  0.38225167  0.34447856    -0.02900
C1611       C  0.81131617  0.37006621  0.32318053     0.36400
C1612       C  0.71641923  0.41543498  0.37979998     0.40000
C1613       C  0.81740899  0.41247897  0.36742563     0.39100
C1614       C  0.71038012  0.37236716  0.33626746     0.36100
C1615       C  0.76785629  0.31093601  0.33641400     0.36800
C1616       C  0.73648026  0.35605090  0.22437211     0.40000
N1617       N  0.83898258  0.42098029  0.37345720    -0.38100
N1618       N  0.83046267  0.36135821  0.31122306    -0.39700
N1619       N  0.69715355  0.42514595  0.39066320    -0.37400
N1620       N  0.68875669  0.36449613  0.32947541    -0.39800
N1621       N  0.73927226  0.41594539  0.27171042    -0.39600
N1622       N  0.72845323  0.36517197  0.20226038    -0.37200
N1623       N  0.77158550  0.25172037  0.28850688    -0.38200
N1624       N  0.77226311  0.30157587  0.35950650    -0.39900
C1625       C  0.62662609  0.34169894  0.18099806    -0.04800
C1626       C  0.62988166  0.35973559  0.15672207     0.09300
C1627       C  0.65046601  0.35419205  0.13592641    -0.02200
C1628       C  0.66913850  0.33199797  0.14063467    -0.00500
C1629       C  0.66810651  0.31606817  0.16690939    -0.04100
C1630       C  0.64590096  0.32011046  0.18638518     0.02900
C1631       C  0.61384813  0.38638764  0.15541466     0.09800
C1632       C  0.65332457  0.37220377  0.11048237     0.35700
C1633       C  0.64364488  0.30346443  0.21292351     0.39100
C1634       C  0.62003974  0.40778844  0.17591297    -0.04500
C1635       C  0.60274983  0.43137210  0.17807327     0.02700
C1636       C  0.57986020  0.43417191  0.15889393    -0.04100
C1637       C  0.57524877  0.41406835  0.13649714    -0.00300
C1638       C  0.59188993  0.38988339  0.13513472    -0.02900
C1639       C  0.64377487  0.40497163  0.19545453     0.36400
C1640       C  0.55271438  0.41790661  0.11559165     0.40000
C1641       C  0.60766123  0.45192192  0.20107548     0.39100
C1642       C  0.58580684  0.36820393  0.11366292     0.36100
C1643       C  0.60421443  0.34647903  0.20131573     0.36800
C1644       C  0.68956953  0.32573250  0.11843465     0.40000
N1645       N  0.61163580  0.46820924  0.21952240    -0.38100
N1646       N  0.66271077  0.40250255  0.21096111    -0.39700
N1647       N  0.53468743  0.42110743  0.09901950    -0.37400
N1648       N  0.58091703  0.35098101  0.09644632    -0.39800
N1649       N  0.65562359  0.38653920  0.09016602    -0.39600
N1650       N  0.70583759  0.32066462  0.10074818    -0.37200
N1651       N  0.64157560  0.29032799  0.23415687    -0.38200
N1652       N  0.58636880  0.35048986  0.21747812    -0.39900
C1653       C  0.72971026  0.15526714  0.08828183    -0.04800
C1654       C  0.72259236  0.12719609  0.09331279     0.09300
C1655       C  0.71374759  0.11902160  0.12143282    -0.02200
C1656       C  0.71407432  0.13827673  0.14507921    -0.00500
C1657       C  0.72336604  0.16605207  0.14072745    -0.04100
C1658       C  0.72963698  0.17476608  0.11173716     0.02900
C1659       C  0.72570388  0.10583687  0.06936993     0.09800
C1660       C  0.70535966  0.09035193  0.12626990     0.35700
C1661       C  0.73555843  0.20386555  0.10574221     0.39100
C1662       C  0.75085662  0.09118614  0.06639869    -0.04500
C1663       C  0.75383733  0.07073778  0.04418344     0.02700
C1664       C  0.73134133  0.06402262  0.02559717    -0.04100
C1665       C  0.70626432  0.07885487  0.02838696    -0.00300
C1666       C  0.70359940  0.10001444  0.04993445    -0.02900
C1667       C  0.77356712  0.09697812  0.08646795     0.36400
C1668       C  0.68315434  0.07207486  0.00923287     0.40000
C1669       C  0.78005490  0.05662853  0.04027875     0.39100
C1670       C  0.67816740  0.11585506  0.05216247     0.36100
C1671       C  0.73781990  0.16379631  0.05900401     0.36800
C1672       C  0.70656806  0.12864829  0.17419045     0.40000
N1673       N  0.80099900  0.04546545  0.03697283    -0.38100
N1674       N  0.79165293  0.10150434  0.10255769    -0.39700
N1675       N  0.66475861  0.06658054  0.99391450    -0.37400
N1676       N  0.65794801  0.12865586  0.05384092    -0.39800
N1677       N  0.69867183  0.06749493  0.13016064    -0.39600
N1678       N  0.70065209  0.12094498  0.19741348    -0.37200
N1679       N  0.74027381  0.22700822  0.10052359    -0.38200
N1680       N  0.74431788  0.17037463  0.03558467    -0.39900
C1681       C  0.85152331  0.24301110  0.08968344    -0.04800
C1682       C  0.87114911  0.26411727  0.09447531     0.09300
C1683       C  0.86920964  0.28150853  0.11950427    -0.02200
C1684       C  0.84684718  0.27889799  0.13880574    -0.00500
C1685       C  0.82655018  0.25826247  0.13364763    -0.04100
C1686       C  0.82998976  0.23928913  0.10982363     0.02900
C1687       C  0.89404748  0.26794388  0.07318406     0.09800
C1688       C  0.89030019  0.30218899  0.12525384     0.35700
C1689       C  0.81185683  0.21560537  0.10588222     0.39100
C1690       C  0.89273290  0.28982802  0.05239725    -0.04500
C1691       C  0.91425315  0.29344043  0.03226296     0.02700
C1692       C  0.93728640  0.27525306  0.03288736    -0.04100
C1693       C  0.93856947  0.25332158  0.05368972    -0.00300
C1694       C  0.91703028  0.24973648  0.07383636    -0.02900
C1695       C  0.86920799  0.30866664  0.05184571     0.36400
C1696       C  0.96198683  0.23434768  0.05420496     0.40000
C1697       C  0.91273752  0.31586688  0.01082594     0.39100
C1698       C  0.91853494  0.22747500  0.09546723     0.36100
C1699       C  0.85304291  0.22565704  0.06342927     0.36800
C1700       C  0.84545753  0.29678077  0.16464709     0.40000
N1701       N  0.91152933  0.33362471  0.99357013    -0.38100
N1702       N  0.85047977  0.32375196  0.05157240    -0.39700
N1703       N  0.98071248  0.21925948  0.05467158    -0.37400
N1704       N  0.91961702  0.20974818  0.11276771    -0.39800
N1705       N  0.90720896  0.31861922  0.12972980    -0.39600
N1706       N  0.84443416  0.31099843  0.18530168    -0.37200
N1707       N  0.79825843  0.19604911  0.10269997    -0.38200
N1708       N  0.85409230  0.21201251  0.04235284    -0.39900
C1709       C  0.17982538  0.39132930  0.37262098    -0.04800
C1710       C  0.20642644  0.39548958  0.36128445     0.09300
C1711       C  0.22335887  0.41660763  0.37314706    -0.02200
C1712       C  0.21323162  0.43436123  0.39526848    -0.00500
C1713       C  0.18572185  0.43197234  0.40442817    -0.04100
C1714       C  0.16935747  0.40979973  0.39402144     0.02900
C1715       C  0.21625510  0.37818799  0.33615280     0.09800
C1716       C  0.25096424  0.42040380  0.36214652     0.35700
C1717       C  0.14186337  0.40616959  0.40534213     0.39100
C1718       C  0.20627201  0.38374370  0.30746364    -0.04500
C1719       C  0.21442264  0.36665095  0.28380624     0.02700
C1720       C  0.23197753  0.34329582  0.28890161    -0.04100
C1721       C  0.24299293  0.33865470  0.31749090    -0.00300
C1722       C  0.23531593  0.35627503  0.34098244    -0.02900
C1723       C  0.18712590  0.40676082  0.30244451     0.36400
C1724       C  0.26084780  0.31482756  0.32333627     0.40000
C1725       C  0.20459417  0.37316269  0.25422051     0.39100
C1726       C  0.24643151  0.35146843  0.37036818     0.36100
C1727       C  0.16326121  0.36819133  0.36206653     0.36800
C1728       C  0.23118426  0.45479497  0.40906661     0.40000
N1729       N  0.19672431  0.37837267  0.23067094    -0.38100
N1730       N  0.17171810  0.42498420  0.29852096    -0.39700
N1731       N  0.27508431  0.29585907  0.32823207    -0.37400
N1732       N  0.25542057  0.34788814  0.39380069    -0.39800
N1733       N  0.27300312  0.42335191  0.35338519    -0.39600
N1734       N  0.24559807  0.47069383  0.42058962    -0.37200
N1735       N  0.11998992  0.40324680  0.41456984    -0.38200
N1736       N  0.15011195  0.34964418  0.35372088    -0.39900
C1737       C  0.37460720  0.18873813  0.35619565    -0.04800
C1738       C  0.37179285  0.21317722  0.33903096     0.09300
C1739       C  0.38931250  0.23610559  0.34448594    -0.02200
C1740       C  0.41040354  0.23409753  0.36594775    -0.00500
C1741       C  0.41357432  0.20946519  0.38272572    -0.04100
C1742       C  0.39529088  0.18700452  0.37823944     0.02900
C1743       C  0.35155774  0.21459887  0.31395542     0.09800
C1744       C  0.38534969  0.26191860  0.32818850     0.35700
C1745       C  0.39788655  0.16213283  0.39629430     0.39100
C1746       C  0.32370977  0.22136578  0.31885736    -0.04500
C1747       C  0.30605071  0.22760551  0.29476134     0.02700
C1748       C  0.31644013  0.22798228  0.26575824    -0.04100
C1749       C  0.34339703  0.21755071  0.26080368    -0.00300
C1750       C  0.36087628  0.21107011  0.28488319    -0.02900
C1751       C  0.31347654  0.22249654  0.34872183     0.36400
C1752       C  0.35379931  0.21446749  0.23111487     0.40000
C1753       C  0.27700235  0.23243040  0.29972363     0.39100
C1754       C  0.38887496  0.20160924  0.27987034     0.36100
C1755       C  0.35626069  0.16543121  0.35106152     0.36800
C1756       C  0.42878821  0.25743336  0.37100163     0.40000
N1757       N  0.25376389  0.23567232  0.30393848    -0.38100
N1758       N  0.30536475  0.22320495  0.37259071    -0.39700
N1759       N  0.36210862  0.21185404  0.20745817    -0.37400
N1760       N  0.41120112  0.19402433  0.27598076    -0.39800
N1761       N  0.38201672  0.28256459  0.31533682    -0.39600
N1762       N  0.44355455  0.27595129  0.37508928    -0.37200
N1763       N  0.39993808  0.14237131  0.41084741    -0.38200
N1764       N  0.34149009  0.14691314  0.34700268    -0.39900
C1765       C  0.35120452  0.37520482  0.18678453    -0.04800
C1766       C  0.37826599  0.36947252  0.19655672     0.09300
C1767       C  0.38468305  0.34361827  0.20989826    -0.02200
C1768       C  0.36408666  0.32331407  0.21318228    -0.00500
C1769       C  0.33697094  0.32879955  0.20295211    -0.04100
C1770       C  0.33065460  0.35485346  0.18966896     0.02900
C1771       C  0.40011004  0.39072751  0.19246182     0.09800
C1772       C  0.41255137  0.33800713  0.22020000     0.35700
C1773       C  0.30335507  0.36028288  0.17758498     0.39100
C1774       C  0.40696177  0.40915427  0.21568399    -0.04500
C1775       C  0.42697466  0.42980882  0.21150612     0.02700
C1776       C  0.44026106  0.43196844  0.18415087    -0.04100
C1777       C  0.43390531  0.41310812  0.16113464    -0.00300
C1778       C  0.41366174  0.39263521  0.16521554    -0.02900
C1779       C  0.39342233  0.40674875  0.24385680     0.36400
C1780       C  0.44839441  0.41466692  0.13343054     0.40000
C1781       C  0.43439160  0.44852903  0.23549073     0.39100
C1782       C  0.40669827  0.37351276  0.14144428     0.36100
C1783       C  0.34462271  0.40209060  0.17360696     0.36800
C1784       C  0.37082073  0.29708423  0.22761993     0.40000
N1785       N  0.44049561  0.46346037  0.25455440    -0.38100
N1786       N  0.38267208  0.40470864  0.26635650    -0.39700
N1787       N  0.46015143  0.41579397  0.11144322    -0.37400
N1788       N  0.40105744  0.35827777  0.12248488    -0.39800
N1789       N  0.43479139  0.33365786  0.22844163    -0.39600
N1790       N  0.37654488  0.27630468  0.23925233    -0.37200
N1791       N  0.28162524  0.36452218  0.16781538    -0.38200
N1792       N  0.33945795  0.42358396  0.16317379    -0.39900
C1793       C  0.12791702  0.31357775  0.14079261    -0.04800
C1794       C  0.13766554  0.31180320  0.11181200     0.09300
C1795       C  0.16602663  0.30881748  0.10678110    -0.02200
C1796       C  0.18424620  0.30419668  0.13071371    -0.00500
C1797       C  0.17388584  0.30136006  0.15970313    -0.04100
C1798       C  0.14601221  0.30905784  0.16478193     0.02900
C1799       C  0.11757220  0.30972057  0.08694898     0.09800
C1800       C  0.17621308  0.30943039  0.07686248     0.40500
C1801       C  0.13550207  0.31253188  0.19434619     0.39100
C1802       C  0.10576921  0.33395369  0.07424748    -0.04500
C1803       C  0.08560309  0.33139801  0.05186316     0.02700
C1804       C  0.07669378  0.30464836  0.04293861    -0.04100
C1805       C  0.08795120  0.28047269  0.05625344    -0.00300
C1806       C  0.10876790  0.28298639  0.07778646    -0.02900
C1807       C  0.11409865  0.36136848  0.08455266     0.36400
C1808       C  0.07806062  0.25303536  0.04764896     0.40000
C1809       C  0.07388644  0.35613922  0.03804028     0.39100
C1810       C  0.12107810  0.25806744  0.09072606     0.36100
C1811       C  0.09883959  0.31859506  0.14575440     0.36800
C1812       C  0.21360060  0.30315591  0.12538413     0.40000
N1813       N  0.06445760  0.37580945  0.02692946    -0.38100
N1814       N  0.12059091  0.38325363  0.09294094    -0.39700
N1815       N  0.06998818  0.23122725  0.04079981    -0.37400
N1816       N  0.13105033  0.23825704  0.10099376    -0.39800
N1817       N  0.18433987  0.30991132  0.05299852    -0.39600
N1818       N  0.23699562  0.30254105  0.12096528    -0.37200
N1819       N  0.12697075  0.31592482  0.21780080    -0.38200
N1820       N  0.07563068  0.32254579  0.14950249    -0.39900
C1821       C  0.23928786  0.17825403  0.07846639    -0.04800
C1822       C  0.25031965  0.15144287  0.08384253     0.09300
C1823       C  0.26313484  0.14529734  0.11110380    -0.02200
C1824       C  0.26643807  0.16645289  0.13237973    -0.00500
C1825       C  0.25521043  0.19338920  0.12724548    -0.04100
C1826       C  0.24092925  0.19898454  0.10048907     0.02900
C1827       C  0.24991085  0.12986735  0.06026806     0.09800
C1828       C  0.27284669  0.11709078  0.11717705     0.35700
C1829       C  0.22851002  0.22614929  0.09499864     0.39100
C1830       C  0.27407481  0.12444623  0.04429830    -0.04500
C1831       C  0.27483334  0.10224308  0.02403850     0.02700
C1832       C  0.25143687  0.08539253  0.01978531    -0.04100
C1833       C  0.22698809  0.09127165  0.03515830    -0.00300
C1834       C  0.22617415  0.11369062  0.05528514    -0.02900
C1835       C  0.29849429  0.14105541  0.04966256     0.36400
C1836       C  0.20315929  0.07351897  0.03117515     0.40000
C1837       C  0.30017772  0.09563951  0.00884262     0.39100
C1838       C  0.20133953  0.11954939  0.07166840     0.36100
C1839       C  0.22692656  0.18461975  0.04995296     0.36800
C1840       C  0.28123765  0.16033807  0.15961771     0.40000
N1841       N  0.32034598  0.09018567  0.99674997    -0.38100
N1842       N  0.31800422  0.15418741  0.05414365    -0.39700
N1843       N  0.18422584  0.05921341  0.02820813    -0.37400
N1844       N  0.18155179  0.12433223  0.08474188    -0.39800
N1845       N  0.28035428  0.09451907  0.12199640    -0.39600
N1846       N  0.29331329  0.15559570  0.18119373    -0.37200
N1847       N  0.21813387  0.24748290  0.08997758    -0.38200
N1848       N  0.21725528  0.18967456  0.02712954    -0.39900
C1849       C  0.17840067  0.88323380  0.24104834    -0.04800
C1850       C  0.14969605  0.88089650  0.24404937     0.09300
C1851       C  0.13752865  0.85436626  0.24620038    -0.02200
C1852       C  0.15390417  0.83007774  0.24513093    -0.00500
C1853       C  0.18277851  0.83215356  0.24206975    -0.04100
C1854       C  0.19498842  0.85889142  0.24015498     0.02900
C1855       C  0.13146220  0.90602365  0.24398519     0.09800
C1856       C  0.10784368  0.85218462  0.24860897     0.35700
C1857       C  0.22458824  0.86142146  0.23757859     0.39100
C1858       C  0.11721499  0.91334472  0.21781624    -0.04500
C1859       C  0.09515178  0.93245903  0.21883487     0.02700
C1860       C  0.08788022  0.94496965  0.24584198    -0.04100
C1861       C  0.10324512  0.93907430  0.27167220    -0.00300
C1862       C  0.12469650  0.91914147  0.27086968    -0.02900
C1863       C  0.12428191  0.89992905  0.19017755     0.36400
C1864       C  0.09638254  0.95290336  0.29913857     0.40000
C1865       C  0.07925281  0.93865469  0.19234581     0.39100
C1866       C  0.13861322  0.91074586  0.29791804     0.36100
C1867       C  0.19071450  0.91061248  0.23826842     0.36800
C1868       C  0.14062345  0.80298877  0.24561397     0.40000
N1869       N  0.06634559  0.94363065  0.17138581    -0.38100
N1870       N  0.12986001  0.88914459  0.16815487    -0.39700
N1871       N  0.09095542  0.96403129  0.32102128    -0.37400
N1872       N  0.14953922  0.90378595  0.31951378    -0.39800
N1873       N  0.08416497  0.85078393  0.25031176    -0.39600
N1874       N  0.12989333  0.78147186  0.24597348    -0.37200
N1875       N  0.24819820  0.86336373  0.23547971    -0.38200
N1876       N  0.20062682  0.93241221  0.23593066    -0.39900
C1877       C  0.88657792  0.83695446  0.24067858    -0.04800
C1878       C  0.88455607  0.86374061  0.22780634     0.09300
C1879       C  0.86095185  0.87095911  0.21105411    -0.02200
C1880       C  0.83914543  0.85186007  0.20789256    -0.00500
C1881       C  0.84035718  0.82558756  0.22215613    -0.04100
C1882       C  0.86459502  0.81789044  0.23784445     0.02900
C1883       C  0.90698009  0.88474285  0.23225769     0.09800
C1884       C  0.85897953  0.89831783  0.19737339     0.35700
C1885       C  0.86674002  0.79066884  0.25172960     0.39100
C1886       C  0.92578853  0.89008539  0.20951000    -0.04500
C1887       C  0.94535485  0.91154858  0.21277965     0.02700
C1888       C  0.94642053  0.92758699  0.23893765    -0.04100
C1889       C  0.92839301  0.92148920  0.26216201    -0.00300
C1890       C  0.90851784  0.90034147  0.25871098    -0.02900
C1891       C  0.92462604  0.87378922  0.18253119     0.36400
C1892       C  0.93033387  0.93706298  0.28957817     0.40000
C1893       C  0.96407273  0.91760808  0.18902858     0.39100
C1894       C  0.88908514  0.89512425  0.28202435     0.36100
C1895       C  0.91120925  0.82924435  0.25717104     0.36800
C1896       C  0.81604840  0.85890765  0.18876239     0.40000
N1897       N  0.97909413  0.92253690  0.17018066    -0.38100
N1898       N  0.92364399  0.86080519  0.16098241    -0.39700
N1899       N  0.93203053  0.94938295  0.31151323    -0.37400
N1900       N  0.87349814  0.89093946  0.30054548    -0.39800
N1901       N  0.85748071  0.92014575  0.18648989    -0.39600
N1902       N  0.79806595  0.86479524  0.17299936    -0.37200
N1903       N  0.86857158  0.76890759  0.26271662    -0.38200
N1904       N  0.93089512  0.82323121  0.27035464    -0.39900
C1905       C  0.83611832  0.11798361  0.20630330    -0.04800
C1906       C  0.85839450  0.12613637  0.22439801     0.09300
C1907       C  0.85763495  0.15184615  0.23961249    -0.02200
C1908       C  0.83453207  0.16951980  0.23669517    -0.00500
C1909       C  0.81204387  0.16134006  0.21866626    -0.04100
C1910       C  0.81293160  0.13552736  0.20343850     0.02900
C1911       C  0.88272239  0.10743539  0.22759592     0.09800
C1912       C  0.88061931  0.15997783  0.25836713     0.35700
C1913       C  0.79056322  0.12734770  0.18390862     0.39100
C1914       C  0.90522280  0.11050078  0.20867280    -0.04500
C1915       C  0.92820992  0.09263392  0.21157244     0.02700
C1916       C  0.92898866  0.07206258  0.23398952    -0.04100
C1917       C  0.90627698  0.06916485  0.25293640    -0.00300
C1918       C  0.88304055  0.08655953  0.24940297    -0.02900
C1919       C  0.90443177  0.13186990  0.18600586     0.36400
C1920       C  0.90668714  0.04815795  0.27596157     0.40000
C1921       C  0.95087455  0.09529598  0.19127583     0.39100
C1922       C  0.85917673  0.08278516  0.26784144     0.36100
C1923       C  0.83721819  0.09158706  0.19046866     0.36800
C1924       C  0.83371347  0.19582257  0.25276597     0.40000
N1925       N  0.96903775  0.09765744  0.17524084    -0.38100
N1926       N  0.90364206  0.14893931  0.16797277    -0.39700
N1927       N  0.90687094  0.03121038  0.29412430    -0.37400
N1928       N  0.83998118  0.07974512  0.28228720    -0.39800
N1929       N  0.89893740  0.16645576  0.27334733    -0.39600
N1930       N  0.83305448  0.21683076  0.26549073    -0.37200
N1931       N  0.77293547  0.12049931  0.16820854    -0.38200
N1932       N  0.83806116  0.07055561  0.17781149    -0.39900
C1933       C  0.09650094  0.12087829  0.20748183    -0.04800
C1934       C  0.11036474  0.13063188  0.23292898     0.09300
C1935       C  0.10455131  0.11921290  0.26075111    -0.02200
C1936       C  0.08460567  0.09824054  0.26319488    -0.00500
C1937       C  0.07042023  0.08876209  0.23783436    -0.04100
C1938       C  0.07619930  0.10024469  0.20998329     0.02900
C1939       C  0.13003089  0.15413477  0.23063213     0.09800
C1940       C  0.11944095  0.12881405  0.28671147     0.35700
C1941       C  0.06144252  0.09057667  0.18395627     0.39100
C1942       C  0.12006755  0.18182031  0.23177387    -0.04500
C1943       C  0.13843638  0.20428700  0.22992108     0.02700
C1944       C  0.16692283  0.19913828  0.22636240    -0.04100
C1945       C  0.17679076  0.17123108  0.22487344    -0.00300
C1946       C  0.15836736  0.14879718  0.22748523    -0.02900
C1947       C  0.09080049  0.18708765  0.23501098     0.36400
C1948       C  0.20593376  0.16548148  0.22146173     0.40000
C1949       C  0.12771035  0.23264176  0.23109529     0.39100
C1950       C  0.16849967  0.12018310  0.22753685     0.36100
C1951       C  0.10367609  0.13167561  0.17874972     0.36800
C1952       C  0.07864446  0.08627528  0.29172668     0.40000
N1953       N  0.11881545  0.25511396  0.23228572    -0.38100
N1954       N  0.06745630  0.19116593  0.23756367    -0.39700
N1955       N  0.22915232  0.16086785  0.21859010    -0.37400
N1956       N  0.17649173  0.09732407  0.22786598    -0.39800
N1957       N  0.13150281  0.13641174  0.30733426    -0.39600
N1958       N  0.07375430  0.07668227  0.31443770    -0.37200
N1959       N  0.04959591  0.08294660  0.16320180    -0.38200
N1960       N  0.10970167  0.14016129  0.15587130    -0.39900
loop_ 
_geom_bond_atom_site_label_1 
_geom_bond_atom_site_label_2 
_geom_bond_distance 
_geom_bond_site_symmetry_2 
_ccdc_geom_bond_type 
N1            C6   1.353   1_545  A
N1            C5   1.353       .  A
N1           H33   1.040       .  S
N2            C9   1.347   1_455  A
N2           C10   1.348       .  A
N3            C8   1.350   1_545  A
N3            C7   1.351       .  A
N3           H34   1.039       .  S
N4           C11   1.351   1_455  A
N4           C12   1.350       .  A
C5           C13   1.387       .  A
C5           C21   1.415       .  A
C6           C22   1.414       .  A
C6           C14   1.387       .  A
C7           C15   1.387       .  A
C7           C24   1.409       .  A
C8           C23   1.409       .  A
C8           C16   1.387   1_565  A
C9           C21   1.410       .  A
C9           C17   1.388       .  A
C10          C24   1.406       .  A
C10          C18   1.385       .  A
C11          C19   1.385   1_655  A
C11          C22   1.411       .  A
C12          C20   1.387       .  A
C12          C23   1.412       .  A
C13          C14   1.375   1_545  A
C13          H25   1.082       .  S
C14          H26   1.082       .  S
C15          C16   1.372       .  A
C15          H27   1.082       .  S
C16          H28   1.082   1_545  S
C17          C18   1.374   1_655  A
C17          H29   1.082       .  S
C18          H30   1.082       .  S
C19          C20   1.374       .  A
C19          H31   1.082   1_455  S
C20          H32   1.082       .  S
C21        C1916   1.494       .  S
C22        C1888   1.495       .  S
C23        C1860   1.486       .  S
C24        C1937   1.485       .  S
O35         Ni41   1.909       .  S
O35          C56   1.265       .  A
O36         Ni59   1.889       .  S
O36          C45   1.263       .  A
O37         Ni41   1.901       .  S
O37         Ni59   1.889       .  S
O37         Ni53   1.903       .  S
O37          H60   0.965       .  S
C38        C1769   1.483       .  S
C38          O55   1.272       .  A
C38          O47   1.277       .  A
O39         Ni58   1.934       .  S
O39          C45   1.274       .  A
O40         Ni58   1.907       .  S
O40          C42   1.269       .  A
Ni41         O44   1.914       .  S
Ni41         O46   1.905       .  S
C42        C1748   1.494       .  S
C42          O52   1.277       .  A
O43         Ni59   1.919       .  S
O43          C49   1.277       .  A
O44          C49   1.276       .  A
C45        C1825   1.478       .  S
O46          C48   1.265       .  A
O47         Ni58   1.939       .  S
C48        C1797   1.501       .  S
C48          O54   1.268       .  A
C49        C1944   1.482       .  S
H50          O51   0.966       .  S
O51         Ni59   1.909       .  S
O51         Ni53   1.906       .  S
O51         Ni58   1.906       .  S
O52         Ni53   1.945       .  S
Ni53         O57   1.915       .  S
Ni53         O55   1.898       .  S
O54         Ni59   1.918       .  S
C56        C1720   1.483       .  S
C56          O57   1.269       .  A
O61         Ni67   1.924       .  S
O61          C82   1.271       .  A
O62         Ni85   1.899       .  S
O62          C71   1.263       .  A
O63         Ni67   1.921       .  S
O63         Ni85   1.909       .  S
O63         Ni79   1.913       .  S
O63          H86   0.966       .  S
C64        C1629   1.485       .  S
C64          O81   1.270       .  A
C64          O73   1.274       .  A
O65         Ni84   1.935       .  S
O65          C71   1.272       .  A
O66         Ni84   1.911       .  S
O66          C68   1.270       .  A
Ni67         O70   1.936       .  S
Ni67         O72   1.909       .  S
C68        C1601   1.488       .  S
C68          O78   1.273       .  A
O69         Ni85   1.883       .  S
O69          C75   1.262       .  A
O70          C75   1.272       .  A
C71        C1685   1.495       .  S
O72          C74   1.270       .  A
O73         Ni84   1.921       .  S
C74        C1657   1.498       .  S
C74          O80   1.277       .  A
C75        C1909   1.474       .  S
H76          O77   0.966       .  S
O77         Ni85   1.894       .  S
O77         Ni79   1.912       .  S
O77         Ni84   1.920       .  S
O78         Ni79   1.939       .  S
Ni79         O83   1.906       .  S
Ni79         O81   1.906       .  S
O80         Ni85   1.949       .  S
C82        C1573   1.489       .  S
C82          O83   1.268       .  A
O87         Ni93   1.922       .  S
O87         C108   1.270       .  A
O88        Ni111   1.889       .  S
O88          C97   1.264       .  A
O89         Ni93   1.909       .  S
O89        Ni111   1.890       .  S
O89        Ni105   1.895       .  S
O89         H112   0.963       .  S
C90        C1881   1.492       .  S
C90         O107   1.266       .  A
C90          O99   1.273       .  A
O91        Ni110   1.927       .  S
O91          C97   1.270       .  A
O92        Ni110   1.907       .  S
O92          C94   1.270       .  A
Ni93         O96   1.921       .  S
Ni93         O98   1.900       .  S
C94        C1552   1.502       .  S
C94         O104   1.281       .  A
O95        Ni111   1.909       .  S
O95         C101   1.273       .  A
O96         C101   1.275       .  A
C97        C1461   1.475       .  S
O98         C100   1.267       .  A
O99        Ni110   1.942       .  S
C100       C1440   1.498       .  S
C100        O106   1.277       .  A
C101       C1496   1.490       .  S
H102        O103   0.966       .  S
O103       Ni111   1.932       .  S
O103       Ni105   1.917       .  S
O103       Ni110   1.928       .  S
O104       Ni105   1.959       .  S
Ni105       O109   1.899       .  S
Ni105       O107   1.907       .  S
O106       Ni111   1.950       .  S
C108       C1517   1.475       .  S
C108        O109   1.265       .  A
O113       Ni119   1.923       .  S
O113        C134   1.270       .  A
O114       Ni137   1.897       .  S
O114        C123   1.264       .  A
O115       Ni119   1.907       .  S
O115       Ni137   1.899       .  S
O115       Ni131   1.906       .  S
O115        H138   0.967       .  S
C116       C1853   1.484       .  S
C116        O133   1.276       .  A
C116        O125   1.276       .  A
O117       Ni136   1.924       .  S
O117        C123   1.269       .  A
O118       Ni136   1.911       .  S
O118        C120   1.267       .  A
Ni119       O122   1.933       .  S
Ni119       O124   1.894       .  S
C120       C1405   1.495       .  S
C120        O130   1.272       .  A
O121       Ni137   1.893       .  S
O121        C127   1.267       .  A
O122        C127   1.275       .  A
C123       C1328   1.466       .  S
O124        C126   1.265       .  A
O125       Ni136   1.915       .  S
C126       C1300   1.485       .  S
C126        O132   1.276       .  A
C127       C1349   1.467       .  S
H128        O129   0.983       .  S
O129       Ni137   1.899       .  S
O129       Ni131   1.887       .  S
O129       Ni136   1.902       .  S
O130       Ni131   1.926       .  S
Ni131       O135   1.879       .  S
Ni131       O133   1.918       .  S
O132       Ni137   1.947       .  S
C134       C1377   1.461       .  S
C134        O135   1.265       .  A
N139        C144   1.349       .  A
N139        C143   1.345       .  A
N139        H171   1.041       .  S
N140        C147   1.344   1_545  A
N140        C148   1.343       .  A
N141        C146   1.347       .  A
N141        C145   1.351       .  A
N141        H172   1.040       .  S
N142        C149   1.345       .  A
N142        C150   1.343   1_565  A
C143        C151   1.384       .  A
C143        C159   1.401   1_556  A
C144        C160   1.409       .  A
C144        C152   1.388       .  A
C145        C153   1.384       .  A
C145        C162   1.407   1_556  A
C146        C161   1.412       .  A
C146        C154   1.389       .  A
C147        C159   1.398       .  A
C147        C155   1.385   1_565  A
C148        C162   1.401       .  A
C148        C156   1.387       .  A
C149        C157   1.386       .  A
C149        C160   1.405       .  A
C150        C158   1.387       .  A
C150        C161   1.404       .  A
C151        C152   1.377       .  A
C151        H163   1.082       .  S
C152        H164   1.082       .  S
C153        C154   1.376       .  A
C153        H165   1.082       .  S
C154        H166   1.082       .  S
C155        C156   1.372       .  A
C155        H167   1.082   1_545  S
C156        H168   1.082       .  S
C157        C158   1.377   1_565  A
C157        H169   1.082       .  S
C158        H170   1.082       .  S
C159       C1384   1.472       .  S
C160       C1265   1.485       .  S
C161       C1237   1.479       .  S
C162       C1832   1.481       .  S
N173        C178   1.350       .  A
N173        C177   1.353       .  A
N173        H205   1.037       .  S
N174        C181   1.351   1_455  A
N174        C182   1.349       .  A
N175        C180   1.353       .  A
N175        C179   1.350       .  A
N175        H206   1.037       .  S
N176        C183   1.349   1_455  A
N176        C184   1.350       .  A
C177        C185   1.387       .  A
C177        C193   1.415   1_556  A
C178        C194   1.412       .  A
C178        C186   1.387       .  A
C179        C187   1.389       .  A
C179        C196   1.413   1_556  A
C180        C195   1.410       .  A
C180        C188   1.385       .  A
C181        C193   1.413       .  A
C181        C189   1.386       .  A
C182        C196   1.411       .  A
C182        C190   1.386       .  A
C183        C191   1.387   1_655  A
C183        C194   1.411       .  A
C184        C192   1.385       .  A
C184        C195   1.409       .  A
C185        C186   1.375       .  A
C185        H197   1.082       .  S
C186        H198   1.082       .  S
C187        C188   1.372       .  A
C187        H199   1.082       .  S
C188        H200   1.082       .  S
C189        C190   1.373   1_655  A
C189        H201   1.082       .  S
C190        H202   1.082       .  S
C191        C192   1.372       .  A
C191        H203   1.082   1_455  S
C192        H204   1.083       .  S
C193       C1692   1.496       .  S
C194       C1188   1.485       .  S
C195       C1209   1.490       .  S
C196       C1804   1.485       .  S
N207        C212   1.353       .  A
N207        C211   1.354       .  A
N207        H239   1.030       .  S
N208        C215   1.355   1_565  A
N208        C216   1.353       .  A
N209        C214   1.356       .  A
N209        C213   1.355       .  A
N209        H240   1.034       .  S
N210        C217   1.353   1_566  A
N210        C218   1.353   1_556  A
C211        C219   1.388       .  A
C211        C227   1.420       .  A
C212        C228   1.420   1_556  A
C212        C220   1.387       .  A
C213        C221   1.388       .  A
C213        C230   1.421       .  A
C214        C229   1.421   1_556  A
C214        C222   1.387       .  A
C215        C227   1.421       .  A
C215        C223   1.386   1_545  A
C216        C230   1.421       .  A
C216        C224   1.388       .  A
C217        C225   1.387       .  A
C217        C228   1.420       .  A
C218        C226   1.386       .  A
C218        C229   1.418       .  A
C219        C220   1.375       .  A
C219        H231   1.082       .  S
C220        H232   1.082       .  S
C221        C222   1.375       .  A
C221        H233   1.082       .  S
C222        H234   1.082       .  S
C223        C224   1.374       .  A
C223        H235   1.082   1_565  S
C224        H236   1.082       .  S
C225        C226   1.372   1_545  A
C225        H237   1.082       .  S
C226        H238   1.082       .  S
C227       C1160   1.502       .  S
C228       C1664   1.497       .  S
C229       C1545   1.502       .  S
C230       C1125   1.499       .  S
N241        C246   1.354       .  A
N241        C245   1.350       .  A
N241        H273   1.040       .  S
N242        C249   1.347       .  A
N242        C250   1.350   1_455  A
N243        C248   1.349       .  A
N243        C247   1.352       .  A
N243        H274   1.040       .  S
N244        C251   1.350       .  A
N244        C252   1.348   1_455  A
C245        C253   1.387       .  A
C245        C261   1.411       .  A
C246        C262   1.413   1_556  A
C246        C254   1.386       .  A
C247        C255   1.386       .  A
C247        C264   1.410       .  A
C248        C263   1.410   1_556  A
C248        C256   1.388       .  A
C249        C261   1.409       .  A
C249        C257   1.388       .  A
C250        C264   1.407       .  A
C250        C258   1.385   1_655  A
C251        C259   1.386       .  A
C251        C262   1.410       .  A
C252        C260   1.386   1_655  A
C252        C263   1.408       .  A
C253        C254   1.376       .  A
C253        H265   1.082       .  S
C254        H266   1.082       .  S
C255        C256   1.374       .  A
C255        H267   1.082       .  S
C256        H268   1.082       .  S
C257        C258   1.370       .  A
C257        H269   1.083       .  S
C258        H270   1.083   1_455  S
C259        C260   1.371       .  A
C259        H271   1.083       .  S
C260        H272   1.082   1_455  S
C261       C1069   1.480       .  S
C262       C1412   1.497       .  S
C263       C1524   1.484       .  S
C264       C1097   1.491       .  S
O275       Ni281   1.926       .  S
O275        C296   1.271       .  A
O276       Ni299   1.910       .  S
O276        C285   1.267       .  A
O277       Ni281   1.895       .  S
O277       Ni299   1.893       .  S
O277       Ni293   1.905       .  S
O277        H300   0.966       .  S
C278       C1076   1.487       .  S
C278        O295   1.279       .  A
C278        O287   1.278       .  A
O279       Ni298   1.905       .  S
O279        C285   1.264       .  A
O280       Ni298   1.914       .  S
O280        C282   1.267       .  A
Ni281       O284   1.928       .  S
Ni281       O286   1.916       .  S
C282       C1041   1.500       .  S
C282        O292   1.271       .  A
O283       Ni299   1.896       .  S
O283        C289   1.277       .  A
O284        C289   1.281       .  A
C285        C957   1.465       .  S
O286        C288   1.269       .  A
O287       Ni298   1.912       .  S
C288       C1013   1.489       .  S
C288        O294   1.271       .  A
C289        C992   1.477       .  S
H290        O291   0.966       .  S
O291       Ni299   1.910       .  S
O291       Ni293   1.882       .  S
O291       Ni298   1.889       .  S
O292       Ni293   1.932       .  S
Ni293       O297   1.897       .  S
Ni293       O295   1.914       .  S
O294       Ni299   1.932       .  S
C296       C1272   1.486       .  S
C296        O297   1.267       .  A
N301        C306   1.353   1_565  A
N301        C305   1.351       .  A
N301        H333   1.039       .  S
N302        C309   1.350       .  A
N302        C310   1.351       .  A
N303        C308   1.353   1_565  A
N303        C307   1.356       .  A
N303        H334   1.039       .  S
N304        C311   1.353   1_455  A
N304        C312   1.350       .  A
C305        C313   1.388       .  A
C305        C321   1.414       .  A
C306        C322   1.414       .  A
C306        C314   1.386   1_545  A
C307        C315   1.386       .  A
C307        C324   1.418       .  A
C308        C323   1.418       .  A
C308        C316   1.388       .  A
C309        C321   1.413   1_455  A
C309        C317   1.387       .  A
C310        C324   1.412       .  A
C310        C318   1.386       .  A
C311        C319   1.385   1_655  A
C311        C322   1.414       .  A
C312        C320   1.387       .  A
C312        C323   1.415       .  A
C313        C314   1.377       .  A
C313        H325   1.082       .  S
C314        H326   1.082   1_565  S
C315        C316   1.379   1_565  A
C315        H327   1.082       .  S
C316        H328   1.082       .  S
C317        C318   1.373       .  A
C317        H329   1.082   1_455  S
C318        H330   1.083       .  S
C319        C320   1.375       .  A
C319        H331   1.082   1_455  S
C320        H332   1.082       .  S
C321        C880   1.493       .  S
C322        C901   1.502       .  S
C323        C929   1.494       .  S
C324       C1048   1.503       .  S
O335       Ni341   1.920       .  S
O335        C356   1.268       .  A
O336       Ni359   1.899       .  S
O336        C345   1.265       .  A
O337       Ni341   1.919       .  S
O337       Ni359   1.902       .  S
O337       Ni353   1.901       .  S
O337        H360   0.965       .  S
C338        C936   1.493       .  S
C338        O355   1.265       .  A
C338        O347   1.272       .  A
O339       Ni358   1.916       .  S
O339        C345   1.267       .  A
O340       Ni358   1.890       .  S
O340        C342   1.265       .  A
Ni341       O344   1.910       .  S
Ni341       O346   1.907       .  S
C342       C1216   1.493       .  S
C342        O352   1.279       .  A
O343       Ni359   1.917       .  S
O343        C349   1.274       .  A
O344        C349   1.270       .  A
C345        C817   1.470       .  S
O346        C348   1.270       .  A
O347       Ni358   1.938       .  S
C348        C796   1.495       .  S
C348        O354   1.271       .  A
C349        C845   1.487       .  S
H350        O351   0.966       .  S
O351       Ni359   1.932       .  S
O351       Ni353   1.913       .  S
O351       Ni358   1.921       .  S
O352       Ni353   1.948       .  S
Ni353       O357   1.892       .  S
Ni353       O355   1.904       .  S
O354       Ni359   1.925       .  S
C356       C1244   1.486       .  S
C356        O357   1.264       .  A
O361       Ni367   1.935       .  S
O361        C382   1.271       .  A
O362       Ni385   1.895       .  S
O362        C371   1.264       .  A
O363       Ni367   1.926       .  S
O363       Ni385   1.906       .  S
O363       Ni379   1.911       .  S
O363        H386   0.965       .  S
C364        C908   1.509       .  S
C364        O381   1.270       .  A
C364        O373   1.276       .  A
O365       Ni384   1.937       .  S
O365        C371   1.273       .  A
O366       Ni384   1.907       .  S
O366        C368   1.269       .  A
Ni367       O370   1.933       .  S
Ni367       O372   1.905       .  S
C368       C1153   1.491       .  S
C368        O378   1.274       .  A
O369       Ni385   1.919       .  S
O369        C375   1.273       .  A
O370        C375   1.274       .  A
C371        C733   1.481       .  S
O372        C374   1.268       .  A
O373       Ni384   1.944       .  S
C374        C712   1.488       .  S
C374        O380   1.274       .  A
C375        C761   1.514       .  S
H376        O377   0.966       .  S
O377       Ni385   1.919       .  S
O377       Ni379   1.909       .  S
O377       Ni384   1.928       .  S
O378       Ni379   1.941       .  S
Ni379       O383   1.890       .  S
Ni379       O381   1.912       .  S
O380       Ni385   1.940       .  S
C382       C1181   1.477       .  S
C382        O383   1.262       .  A
O387       Ni393   1.933       .  S
O387        C408   1.272       .  A
O388       Ni411   1.892       .  S
O388        C397   1.263       .  A
O389       Ni393   1.927       .  S
O389       Ni411   1.908       .  S
O389       Ni405   1.912       .  S
O389        H412   0.966       .  S
C390        C684   1.484       .  S
C390        O407   1.268       .  A
C390        O399   1.273       .  A
O391       Ni410   1.927       .  S
O391        C397   1.270       .  A
O392       Ni410   1.911       .  S
O392        C394   1.269       .  A
Ni393       O396   1.930       .  S
Ni393       O398   1.908       .  S
C394        C656   1.507       .  S
C394        O404   1.274       .  A
O395       Ni411   1.905       .  S
O395        C401   1.269       .  A
O396        C401   1.273       .  A
C397       C1104   1.480       .  S
O398        C400   1.270       .  A
O399       Ni410   1.933       .  S
C400       C1132   1.491       .  S
C400        O406   1.274       .  A
C401        C873   1.498       .  S
H402        O403   0.965       .  S
O403       Ni411   1.909       .  S
O403       Ni405   1.906       .  S
O403       Ni410   1.925       .  S
O404       Ni405   1.941       .  S
Ni405       O409   1.893       .  S
Ni405       O407   1.896       .  S
O406       Ni411   1.939       .  S
C408        C621   1.480       .  S
C408        O409   1.263       .  A
N413        C418   1.352       .  A
N413        C417   1.352       .  A
N413        H445   1.044       .  S
N414        C421   1.354       .  A
N414        C422   1.346       .  A
N415        C420   1.360       .  A
N415        C419   1.353       .  A
N415        H446   1.041       .  S
N416        C423   1.346       .  A
N416        C424   1.345       .  A
C417        C425   1.388       .  A
C417        C433   1.403       .  A
C418        C434   1.402       .  A
C418        C426   1.383       .  A
C419        C427   1.389       .  A
C419        C436   1.421       .  A
C420        C435   1.422       .  A
C420        C428   1.385       .  A
C421        C433   1.410       .  A
C421        C429   1.382       .  A
C422        C436   1.414       .  A
C422        C430   1.391       .  A
C423        C431   1.386       .  A
C423        C434   1.408       .  A
C424        C432   1.387       .  A
C424        C435   1.410       .  A
C425        C426   1.370       .  A
C425        H437   1.083       .  S
C426        H438   1.083       .  S
C427        C428   1.377       .  A
C427        H439   1.082       .  S
C428        H440   1.082       .  S
C429        C430   1.378       .  A
C429        H441   1.082       .  S
C430        H442   1.082       .  S
C431        C432   1.382       .  A
C431        H443   1.082       .  S
C432        H444   1.082       .  S
C433       C1020   1.495       .  S
C434        C852   1.481       .  S
C435        C768   1.505       .  S
C436        C677   1.488       .  S
N447        C452   1.349       .  A
N447        C451   1.350       .  A
N447        H479   1.041       .  S
N448        C455   1.347       .  A
N448        C456   1.346       .  A
N449        C454   1.350       .  A
N449        C453   1.352       .  A
N449        H480   1.041       .  S
N450        C457   1.349       .  A
N450        C458   1.348       .  A
C451        C459   1.385       .  A
C451        C467   1.408       .  A
C452        C468   1.411       .  A
C452        C460   1.388       .  A
C453        C461   1.386       .  A
C453        C470   1.411       .  A
C454        C469   1.413       .  A
C454        C462   1.387       .  A
C455        C467   1.404       .  A
C455        C463   1.385       .  A
C456        C470   1.407       .  A
C456        C464   1.388       .  A
C457        C465   1.386       .  A
C457        C468   1.409       .  A
C458        C466   1.387       .  A
C458        C469   1.411       .  A
C459        C460   1.377       .  A
C459        H471   1.082       .  S
C460        H472   1.082       .  S
C461        C462   1.378       .  A
C461        H473   1.082       .  S
C462        H474   1.082       .  S
C463        C464   1.373       .  A
C463        H475   1.082       .  S
C464        H476   1.083       .  S
C465        C466   1.376       .  A
C465        H477   1.082       .  S
C466        H478   1.082       .  S
C467       C1776   1.485       .  S
C468       C1356   1.491       .  S
C469       C1489   1.492       .  S
C470       C1636   1.488       .  S
N481        C486   1.358       .  A
N481        C485   1.357       .  A
N481        H513   1.035       .  S
N482        C489   1.354       .  A
N482        C490   1.354       .  A
N483        C488   1.356       .  A
N483        C487   1.356       .  A
N483        H514   1.034       .  S
N484        C491   1.353       .  A
N484        C492   1.353       .  A
C485        C493   1.388       .  A
C485        C501   1.424       .  A
C486        C502   1.423       .  A
C486        C494   1.387       .  A
C487        C495   1.388       .  A
C487        C504   1.421       .  A
C488        C503   1.421       .  A
C488        C496   1.387       .  A
C489        C501   1.421       .  A
C489        C497   1.387       .  A
C490        C504   1.421       .  A
C490        C498   1.386       .  A
C491        C499   1.387       .  A
C491        C502   1.420       .  A
C492        C500   1.386       .  A
C492        C503   1.418       .  A
C493        C494   1.374       .  A
C493        H505   1.082       .  S
C494        H506   1.082       .  S
C495        C496   1.374       .  A
C495        H507   1.082       .  S
C496        H508   1.082       .  S
C497        C498   1.374       .  A
C497        H509   1.082       .  S
C498        H510   1.082       .  S
C499        C500   1.372       .  A
C499        H511   1.082       .  S
C500        H512   1.082       .  S
C501       C1433   1.504       .  S
C502        C649   1.504       .  S
C503        C705   1.500       .  S
C504       C1608   1.502       .  S
N515        C520   1.349       .  A
N515        C519   1.352       .  A
N515        H547   1.040       .  S
N516        C523   1.347       .  A
N516        C524   1.345       .  A
N517        C522   1.349       .  A
N517        C521   1.349       .  A
N517        H548   1.037       .  S
N518        C525   1.350       .  A
N518        C526   1.350       .  A
C519        C527   1.386       .  A
C519        C535   1.410       .  A
C520        C536   1.409       .  A
C520        C528   1.387       .  A
C521        C529   1.388       .  A
C521        C538   1.410       .  A
C522        C537   1.408       .  A
C522        C530   1.385       .  A
C523        C535   1.405       .  A
C523        C531   1.385       .  A
C524        C538   1.407       .  A
C524        C532   1.388       .  A
C525        C533   1.385       .  A
C525        C536   1.408       .  A
C526        C534   1.387       .  A
C526        C537   1.413       .  A
C527        C528   1.373       .  A
C527        H539   1.082       .  S
C528        H540   1.082       .  S
C529        C530   1.376       .  A
C529        H541   1.082       .  S
C530        H542   1.082       .  S
C531        C532   1.371       .  A
C531        H543   1.082       .  S
C532        H544   1.082       .  S
C533        C534   1.374       .  A
C533        H545   1.082       .  S
C534        H546   1.082       .  S
C535        C628   1.488       .  S
C536       C1468   1.486       .  S
C537       C1293   1.488       .  S
C538        C985   1.478       .  S
N549        C554   1.352       .  A
N549        C553   1.350       .  A
N549        H581   1.039       .  S
N550        C557   1.351       .  A
N550        C558   1.348       .  A
N551        C556   1.355       .  A
N551        C555   1.353       .  A
N551        H582   1.040       .  S
N552        C559   1.348       .  A
N552        C560   1.348       .  A
C553        C561   1.388       .  A
C553        C569   1.411       .  A
C554        C570   1.408       .  A
C554        C562   1.386       .  A
C555        C563   1.387       .  A
C555        C572   1.414       .  A
C556        C571   1.416       .  A
C556        C564   1.388       .  A
C557        C569   1.409       .  A
C557        C565   1.384       .  A
C558        C572   1.409       .  A
C558        C566   1.387       .  A
C559        C567   1.387       .  A
C559        C570   1.408       .  A
C560        C568   1.386       .  A
C560        C571   1.407       .  A
C561        C562   1.370       .  A
C561        H573   1.082       .  S
C562        H574   1.082       .  S
C563        C564   1.369       .  A
C563        H575   1.082       .  S
C564        H576   1.082       .  S
C565        C566   1.373       .  A
C565        H577   1.082       .  S
C566        H578   1.082       .  S
C567        C568   1.372       .  A
C567        H579   1.082       .  S
C568        H580   1.083       .  S
C569        C824   1.489       .  S
C570       C1713   1.485       .  S
C571       C1321   1.494       .  S
C572        C964   1.487       .  S
N583        C588   1.353       .  A
N583        C587   1.351       .  A
N583        H615   1.041       .  S
N584        C591   1.350       .  A
N584        C592   1.351       .  A
N585        C590   1.352       .  A
N585        C589   1.353       .  A
N585        H616   1.040       .  S
N586        C593   1.350       .  A
N586        C594   1.349       .  A
C587        C595   1.386       .  A
C587        C603   1.411       .  A
C588        C604   1.416       .  A
C588        C596   1.387       .  A
C589        C597   1.387       .  A
C589        C606   1.416       .  A
C590        C605   1.414       .  A
C590        C598   1.387       .  A
C591        C603   1.411       .  A
C591        C599   1.385       .  A
C592        C606   1.414       .  A
C592        C600   1.386       .  A
C593        C601   1.386       .  A
C593        C604   1.412       .  A
C594        C602   1.386       .  A
C594        C605   1.410       .  A
C595        C596   1.375       .  A
C595        H607   1.082       .  S
C596        H608   1.082       .  S
C597        C598   1.378       .  A
C597        H609   1.082       .  S
C598        H610   1.082       .  S
C599        C600   1.376       .  A
C599        H611   1.082       .  S
C600        H612   1.082       .  S
C601        C602   1.376       .  A
C601        H613   1.082       .  S
C602        H614   1.082       .  S
C603       C1741   1.493       .  S
C604        C789   1.503       .  S
C605        C740   1.491       .  S
C606       C1580   1.500       .  S
C617        C618   1.409       .  A
C617        C622   1.408       .  A
C617        C635   1.452       .  S
C618        C619   1.408       .  A
C618        C623   1.488       .  S
C619        C620   1.408       .  A
C619        C624   1.450       .  S
C620        C621   1.414       .  A
C620        C636   1.451       .  S
C621        C622   1.413       .  A
C622        C625   1.448       .  S
C623        C626   1.409       .  A
C623        C630   1.410       .  A
C624        N641   1.157       .  T
C625        N643   1.156       .  T
C626        C627   1.405       .  A
C626        C631   1.451       .  S
C627        C628   1.412       .  A
C627        C633   1.451       .  S
C628        C629   1.411       .  A
C629        C630   1.408       .  A
C629        C632   1.451       .  S
C630        C634   1.450       .  S
C631        N638   1.157       .  T
C632        N639   1.157       .  T
C633        N637   1.157       .  T
C634        N640   1.157       .  T
C635        N644   1.157       .  T
C636        N642   1.157       .  T
C645        C646   1.412       .  A
C645        C650   1.412       .  A
C645        C663   1.451       .  S
C646        C647   1.411       .  A
C646        C651   1.500       .  S
C647        C648   1.413       .  A
C647        C652   1.450       .  S
C648        C649   1.414       .  A
C648        C664   1.450       .  S
C649        C650   1.415       .  A
C650        C653   1.450       .  S
C651        C654   1.408       .  A
C651        C658   1.409       .  A
C652        N669   1.157       .  T
C653        N671   1.157       .  T
C654        C655   1.413       .  A
C654        C659   1.452       .  S
C655        C656   1.425       .  A
C655        C661   1.451       .  S
C656        C657   1.423       .  A
C657        C658   1.414       .  A
C657        C660   1.451       .  S
C658        C662   1.451       .  S
C659        N666   1.157       .  T
C660        N667   1.157       .  T
C661        N665   1.158       .  T
C662        N668   1.157       .  T
C663        N672   1.157       .  T
C664        N670   1.157       .  T
C673        C674   1.413       .  A
C673        C678   1.408       .  A
C673        C691   1.451       .  S
C674        C675   1.412       .  A
C674        C679   1.492       .  S
C675        C676   1.407       .  A
C675        C680   1.451       .  S
C676        C677   1.411       .  A
C676        C692   1.451       .  S
C677        C678   1.410       .  A
C678        C681   1.451       .  S
C679        C682   1.411       .  A
C679        C686   1.410       .  A
C680        N697   1.157       .  T
C681        N699   1.157       .  T
C682        C683   1.408       .  A
C682        C687   1.451       .  S
C683        C684   1.415       .  A
C683        C689   1.452       .  S
C684        C685   1.416       .  A
C685        C686   1.407       .  A
C685        C688   1.451       .  S
C686        C690   1.452       .  S
C687        N694   1.157       .  T
C688        N695   1.157       .  T
C689        N693   1.157       .  T
C690        N696   1.157       .  T
C691        N700   1.157       .  T
C692        N698   1.157       .  T
C701        C702   1.412       .  A
C701        C706   1.412       .  A
C701        C719   1.450       .  S
C702        C703   1.414       .  A
C702        C707   1.502       .  S
C703        C704   1.412       .  A
C703        C708   1.450       .  S
C704        C705   1.412       .  A
C704        C720   1.450       .  S
C705        C706   1.412       .  A
C706        C709   1.450       .  S
C707        C710   1.411       .  A
C707        C714   1.414       .  A
C708        N725   1.157       .  T
C709        N727   1.157       .  T
C710        C711   1.410       .  A
C710        C715   1.451       .  S
C711        C712   1.416       .  A
C711        C717   1.452       .  S
C712        C713   1.412       .  A
C713        C714   1.415       .  A
C713        C716   1.450       .  S
C714        C718   1.449       .  S
C715        N722   1.157       .  T
C716        N723   1.157       .  T
C717        N721   1.157       .  T
C718        N724   1.157       .  T
C719        N728   1.157       .  T
C720        N726   1.157       .  T
C729        C730   1.413       .  A
C729        C734   1.410       .  A
C729        C747   1.451       .  S
C730        C731   1.412       .  A
C730        C735   1.497       .  S
C731        C732   1.410       .  A
C731        C736   1.451       .  S
C732        C733   1.412       .  A
C732        C748   1.451       .  S
C733        C734   1.412       .  A
C734        C737   1.452       .  S
C735        C738   1.413       .  A
C735        C742   1.413       .  A
C736        N753   1.157       .  T
C737        N755   1.157       .  T
C738        C739   1.408       .  A
C738        C743   1.450       .  S
C739        C740   1.410       .  A
C739        C745   1.451       .  S
C740        C741   1.412       .  A
C741        C742   1.411       .  A
C741        C744   1.450       .  S
C742        C746   1.451       .  S
C743        N750   1.157       .  T
C744        N751   1.157       .  T
C745        N749   1.157       .  T
C746        N752   1.157       .  T
C747        N756   1.157       .  T
C748        N754   1.157       .  T
C757        C758   1.408       .  A
C757        C762   1.416       .  A
C757        C775   1.452       .  S
C758        C759   1.409       .  A
C758        C763   1.505       .  S
C759        C760   1.414       .  A
C759        C764   1.452       .  S
C760        C761   1.427       .  A
C760        C776   1.452       .  S
C761        C762   1.426       .  A
C762        C765   1.449       .  S
C763        C766   1.412       .  A
C763        C770   1.413       .  A
C764        N781   1.157       .  T
C765        N783   1.157       .  T
C766        C767   1.413       .  A
C766        C771   1.451       .  S
C767        C768   1.416       .  A
C767        C773   1.450       .  S
C768        C769   1.415       .  A
C769        C770   1.413       .  A
C769        C772   1.450       .  S
C770        C774   1.450       .  S
C771        N778   1.157       .  T
C772        N779   1.157       .  T
C773        N777   1.157       .  T
C774        N780   1.157       .  T
C775        N784   1.157       .  T
C776        N782   1.158       .  T
C785        C786   1.413       .  A
C785        C790   1.409       .  A
C785        C803   1.452       .  S
C786        C787   1.412       .  A
C786        C791   1.499       .  S
C787        C788   1.410       .  A
C787        C792   1.451       .  S
C788        C789   1.417       .  A
C788        C804   1.451       .  S
C789        C790   1.417       .  A
C790        C793   1.452       .  S
C791        C794   1.411       .  A
C791        C798   1.411       .  A
C792        N809   1.157       .  T
C793        N811   1.157       .  T
C794        C795   1.411       .  A
C794        C799   1.452       .  S
C795        C796   1.421       .  A
C795        C801   1.452       .  S
C796        C797   1.417       .  A
C797        C798   1.409       .  A
C797        C800   1.450       .  S
C798        C802   1.451       .  S
C799        N806   1.157       .  T
C800        N807   1.157       .  T
C801        N805   1.158       .  T
C802        N808   1.157       .  T
C803        N812   1.157       .  T
C804        N810   1.157       .  T
C813        C814   1.409       .  A
C813        C818   1.408       .  A
C813        C831   1.450       .  S
C814        C815   1.413       .  A
C814        C819   1.489       .  S
C815        C816   1.408       .  A
C815        C820   1.450       .  S
C816        C817   1.407       .  A
C816        C832   1.451       .  S
C817        C818   1.413       .  A
C818        C821   1.452       .  S
C819        C822   1.410       .  A
C819        C826   1.410       .  A
C820        N837   1.157       .  T
C821        N839   1.157       .  T
C822        C823   1.409       .  A
C822        C827   1.450       .  S
C823        C824   1.412       .  A
C823        C829   1.450       .  S
C824        C825   1.411       .  A
C825        C826   1.406       .  A
C825        C828   1.451       .  S
C826        C830   1.450       .  S
C827        N834   1.157       .  T
C828        N835   1.157       .  T
C829        N833   1.157       .  T
C830        N836   1.157       .  T
C831        N840   1.157       .  T
C832        N838   1.157       .  T
C841        C842   1.410       .  A
C841        C846   1.412       .  A
C841        C859   1.449       .  S
C842        C843   1.408       .  A
C842        C847   1.491       .  S
C843        C844   1.405       .  A
C843        C848   1.453       .  S
C844        C845   1.420       .  A
C844        C860   1.454       .  S
C845        C846   1.415       .  A
C846        C849   1.450       .  S
C847        C850   1.410       .  A
C847        C854   1.412       .  A
C848        N865   1.157       .  T
C849        N867   1.157       .  T
C850        C851   1.406       .  A
C850        C855   1.451       .  S
C851        C852   1.411       .  A
C851        C857   1.452       .  S
C852        C853   1.410       .  A
C853        C854   1.410       .  A
C853        C856   1.450       .  S
C854        C858   1.450       .  S
C855        N862   1.157       .  T
C856        N863   1.157       .  T
C857        N861   1.157       .  T
C858        N864   1.157       .  T
C859        N868   1.157       .  T
C860        N866   1.158       .  T
C869        C870   1.408       .  A
C869        C874   1.410       .  A
C869        C887   1.452       .  S
C870        C871   1.406       .  A
C870        C875   1.492       .  S
C871        C872   1.409       .  A
C871        C876   1.453       .  S
C872        C873   1.422       .  A
C872        C888   1.448       .  S
C873        C874   1.422       .  A
C874        C877   1.452       .  S
C875        C878   1.411       .  A
C875        C882   1.410       .  A
C876        N893   1.157       .  T
C877        N895   1.158       .  T
C878        C879   1.407       .  A
C878        C883   1.451       .  S
C879        C880   1.413       .  A
C879        C885   1.451       .  S
C880        C881   1.414       .  A
C881        C882   1.409       .  A
C881        C884   1.450       .  S
C882        C886   1.450       .  S
C883        N890   1.157       .  T
C884        N891   1.157       .  T
C885        N889   1.157       .  T
C886        N892   1.157       .  T
C887        N896   1.157       .  T
C888        N894   1.156       .  T
C897        C898   1.415       .  A
C897        C902   1.414       .  A
C897        C915   1.450       .  S
C898        C899   1.415       .  A
C898        C903   1.507       .  S
C899        C900   1.412       .  A
C899        C904   1.451       .  S
C900        C901   1.413       .  A
C900        C916   1.450       .  S
C901        C902   1.413       .  A
C902        C905   1.450       .  S
C903        C906   1.412       .  A
C903        C910   1.411       .  A
C904        N921   1.157       .  T
C905        N923   1.157       .  T
C906        C907   1.416       .  A
C906        C911   1.451       .  S
C907        C908   1.422       .  A
C907        C913   1.451       .  S
C908        C909   1.422       .  A
C909        C910   1.414       .  A
C909        C912   1.449       .  S
C910        C914   1.453       .  S
C911        N918   1.157       .  T
C912        N919   1.156       .  T
C913        N917   1.157       .  T
C914        N920   1.157       .  T
C915        N924   1.157       .  T
C916        N922   1.157       .  T
C925        C926   1.413       .  A
C925        C930   1.410       .  A
C925        C943   1.450       .  S
C926        C927   1.413       .  A
C926        C931   1.500       .  S
C927        C928   1.411       .  A
C927        C932   1.450       .  S
C928        C929   1.411       .  A
C928        C944   1.450       .  S
C929        C930   1.411       .  A
C930        C933   1.451       .  S
C931        C934   1.411       .  A
C931        C938   1.411       .  A
C932        N949   1.157       .  T
C933        N951   1.157       .  T
C934        C935   1.411       .  A
C934        C939   1.452       .  S
C935        C936   1.417       .  A
C935        C941   1.450       .  S
C936        C937   1.417       .  A
C937        C938   1.413       .  A
C937        C940   1.451       .  S
C938        C942   1.451       .  S
C939        N946   1.157       .  T
C940        N947   1.157       .  T
C941        N945   1.157       .  T
C942        N948   1.157       .  T
C943        N952   1.157       .  T
C944        N950   1.157       .  T
C953        C954   1.412       .  A
C953        C958   1.404       .  A
C953        C971   1.452       .  S
C954        C955   1.411       .  A
C954        C959   1.486       .  S
C955        C956   1.407       .  A
C955        C960   1.450       .  S
C956        C957   1.408       .  A
C956        C972   1.451       .  S
C957        C958   1.410       .  A
C958        C961   1.452       .  S
C959        C962   1.413       .  A
C959        C966   1.409       .  A
C960        N977   1.157       .  T
C961        N979   1.157       .  T
C962        C963   1.411       .  A
C962        C967   1.450       .  S
C963        C964   1.410       .  A
C963        C969   1.449       .  S
C964        C965   1.412       .  A
C965        C966   1.400       .  A
C965        C968   1.452       .  S
C966        C970   1.452       .  S
C967        N974   1.157       .  T
C968        N975   1.157       .  T
C969        N973   1.157       .  T
C970        N976   1.157       .  T
C971        N980   1.157       .  T
C972        N978   1.157       .  T
C981        C982   1.410       .  A
C981        C986   1.401       .  A
C981        C999   1.452       .  S
C982        C983   1.408       .  A
C982        C987   1.479       .  S
C983        C984   1.406       .  A
C983        C988   1.450       .  S
C984        C985   1.410       .  A
C984       C1000   1.450       .  S
C985        C986   1.408       .  A
C986        C989   1.451       .  S
C987        C990   1.407       .  A
C987        C994   1.407       .  A
C988       N1005   1.157       .  T
C989       N1007   1.157       .  T
C990        C991   1.405       .  A
C990        C995   1.452       .  S
C991        C992   1.416       .  A
C991        C997   1.452       .  S
C992        C993   1.417       .  A
C993        C994   1.404       .  A
C993        C996   1.453       .  S
C994        C998   1.452       .  S
C995       N1002   1.157       .  T
C996       N1003   1.158       .  T
C997       N1001   1.157       .  T
C998       N1004   1.157       .  T
C999       N1008   1.157       .  T
C1000      N1006   1.157       .  T
C1009      C1010   1.418       .  A
C1009      C1014   1.417       .  A
C1009      C1027   1.450       .  S
C1010      C1011   1.416       .  A
C1010      C1015   1.513       .  S
C1011      C1012   1.412       .  A
C1011      C1016   1.451       .  S
C1012      C1013   1.412       .  A
C1012      C1028   1.451       .  S
C1013      C1014   1.411       .  A
C1014      C1017   1.450       .  S
C1015      C1018   1.418       .  A
C1015      C1022   1.417       .  A
C1016      N1033   1.157       .  T
C1017      N1035   1.157       .  T
C1018      C1019   1.415       .  A
C1018      C1023   1.450       .  S
C1019      C1020   1.411       .  A
C1019      C1025   1.450       .  S
C1020      C1021   1.412       .  A
C1021      C1022   1.414       .  A
C1021      C1024   1.451       .  S
C1022      C1026   1.451       .  S
C1023      N1030   1.157       .  T
C1024      N1031   1.157       .  T
C1025      N1029   1.157       .  T
C1026      N1032   1.157       .  T
C1027      N1036   1.157       .  T
C1028      N1034   1.157       .  T
C1037      C1038   1.411       .  A
C1037      C1042   1.416       .  A
C1037      C1055   1.450       .  S
C1038      C1039   1.411       .  A
C1038      C1043   1.504       .  S
C1039      C1040   1.412       .  A
C1039      C1044   1.452       .  S
C1040      C1041   1.420       .  A
C1040      C1056   1.450       .  S
C1041      C1042   1.417       .  A
C1042      C1045   1.450       .  S
C1043      C1046   1.412       .  A
C1043      C1050   1.413       .  A
C1044      N1061   1.157       .  T
C1045      N1063   1.157       .  T
C1046      C1047   1.412       .  A
C1046      C1051   1.450       .  S
C1047      C1048   1.414       .  A
C1047      C1053   1.451       .  S
C1048      C1049   1.413       .  A
C1049      C1050   1.415       .  A
C1049      C1052   1.449       .  S
C1050      C1054   1.450       .  S
C1051      N1058   1.157       .  T
C1052      N1059   1.157       .  T
C1053      N1057   1.157       .  T
C1054      N1060   1.157       .  T
C1055      N1064   1.157       .  T
C1056      N1062   1.157       .  T
C1065      C1066   1.409       .  A
C1065      C1070   1.404       .  A
C1065      C1083   1.450       .  S
C1066      C1067   1.408       .  A
C1066      C1071   1.479       .  S
C1067      C1068   1.402       .  A
C1067      C1072   1.452       .  S
C1068      C1069   1.411       .  A
C1068      C1084   1.451       .  S
C1069      C1070   1.409       .  A
C1070      C1073   1.450       .  S
C1071      C1074   1.406       .  A
C1071      C1078   1.405       .  A
C1072      N1089   1.157       .  T
C1073      N1091   1.157       .  T
C1074      C1075   1.406       .  A
C1074      C1079   1.452       .  S
C1075      C1076   1.421       .  A
C1075      C1081   1.451       .  S
C1076      C1077   1.421       .  A
C1077      C1078   1.403       .  A
C1077      C1080   1.453       .  S
C1078      C1082   1.453       .  S
C1079      N1086   1.157       .  T
C1080      N1087   1.158       .  T
C1081      N1085   1.158       .  T
C1082      N1088   1.157       .  T
C1083      N1092   1.157       .  T
C1084      N1090   1.157       .  T
C1093      C1094   1.412       .  A
C1093      C1098   1.407       .  A
C1093      C1111   1.451       .  S
C1094      C1095   1.408       .  A
C1094      C1099   1.489       .  S
C1095      C1096   1.407       .  A
C1095      C1100   1.450       .  S
C1096      C1097   1.414       .  A
C1096      C1112   1.450       .  S
C1097      C1098   1.410       .  A
C1098      C1101   1.450       .  S
C1099      C1102   1.409       .  A
C1099      C1106   1.409       .  A
C1100      N1117   1.157       .  T
C1101      N1119   1.157       .  T
C1102      C1103   1.408       .  A
C1102      C1107   1.451       .  S
C1103      C1104   1.416       .  A
C1103      C1109   1.451       .  S
C1104      C1105   1.414       .  A
C1105      C1106   1.407       .  A
C1105      C1108   1.451       .  S
C1106      C1110   1.451       .  S
C1107      N1114   1.157       .  T
C1108      N1115   1.157       .  T
C1109      N1113   1.157       .  T
C1110      N1116   1.157       .  T
C1111      N1120   1.157       .  T
C1112      N1118   1.157       .  T
C1121      C1122   1.412       .  A
C1121      C1126   1.412       .  A
C1121      C1139   1.450       .  S
C1122      C1123   1.411       .  A
C1122      C1127   1.499       .  S
C1123      C1124   1.411       .  A
C1123      C1128   1.450       .  S
C1124      C1125   1.412       .  A
C1124      C1140   1.449       .  S
C1125      C1126   1.413       .  A
C1126      C1129   1.450       .  S
C1127      C1130   1.411       .  A
C1127      C1134   1.410       .  A
C1128      N1145   1.157       .  T
C1129      N1147   1.157       .  T
C1130      C1131   1.414       .  A
C1130      C1135   1.450       .  S
C1131      C1132   1.414       .  A
C1131      C1137   1.449       .  S
C1132      C1133   1.418       .  A
C1133      C1134   1.411       .  A
C1133      C1136   1.452       .  S
C1134      C1138   1.451       .  S
C1135      N1142   1.157       .  T
C1136      N1143   1.157       .  T
C1137      N1141   1.157       .  T
C1138      N1144   1.157       .  T
C1139      N1148   1.157       .  T
C1140      N1146   1.157       .  T
C1149      C1150   1.412       .  A
C1149      C1154   1.415       .  A
C1149      C1167   1.450       .  S
C1150      C1151   1.410       .  A
C1150      C1155   1.501       .  S
C1151      C1152   1.410       .  A
C1151      C1156   1.451       .  S
C1152      C1153   1.417       .  A
C1152      C1168   1.452       .  S
C1153      C1154   1.414       .  A
C1154      C1157   1.450       .  S
C1155      C1158   1.411       .  A
C1155      C1162   1.413       .  A
C1156      N1173   1.157       .  T
C1157      N1175   1.157       .  T
C1158      C1159   1.412       .  A
C1158      C1163   1.450       .  S
C1159      C1160   1.413       .  A
C1159      C1165   1.450       .  S
C1160      C1161   1.413       .  A
C1161      C1162   1.414       .  A
C1161      C1164   1.449       .  S
C1162      C1166   1.450       .  S
C1163      N1170   1.157       .  T
C1164      N1171   1.157       .  T
C1165      N1169   1.157       .  T
C1166      N1172   1.157       .  T
C1167      N1176   1.157       .  T
C1168      N1174   1.157       .  T
C1177      C1178   1.410       .  A
C1177      C1182   1.406       .  A
C1177      C1195   1.452       .  S
C1178      C1179   1.410       .  A
C1178      C1183   1.489       .  S
C1179      C1180   1.409       .  A
C1179      C1184   1.450       .  S
C1180      C1181   1.412       .  A
C1180      C1196   1.451       .  S
C1181      C1182   1.413       .  A
C1182      C1185   1.450       .  S
C1183      C1186   1.412       .  A
C1183      C1190   1.411       .  A
C1184      N1201   1.157       .  T
C1185      N1203   1.157       .  T
C1186      C1187   1.407       .  A
C1186      C1191   1.451       .  S
C1187      C1188   1.410       .  A
C1187      C1193   1.450       .  S
C1188      C1189   1.410       .  A
C1189      C1190   1.406       .  A
C1189      C1192   1.451       .  S
C1190      C1194   1.451       .  S
C1191      N1198   1.157       .  T
C1192      N1199   1.157       .  T
C1193      N1197   1.157       .  T
C1194      N1200   1.157       .  T
C1195      N1204   1.157       .  T
C1196      N1202   1.157       .  T
C1205      C1206   1.410       .  A
C1205      C1210   1.406       .  A
C1205      C1223   1.452       .  S
C1206      C1207   1.410       .  A
C1206      C1211   1.488       .  S
C1207      C1208   1.409       .  A
C1207      C1212   1.450       .  S
C1208      C1209   1.412       .  A
C1208      C1224   1.450       .  S
C1209      C1210   1.411       .  A
C1210      C1213   1.451       .  S
C1211      C1214   1.406       .  A
C1211      C1218   1.407       .  A
C1212      N1229   1.157       .  T
C1213      N1231   1.157       .  T
C1214      C1215   1.406       .  A
C1214      C1219   1.453       .  S
C1215      C1216   1.424       .  A
C1215      C1221   1.453       .  S
C1216      C1217   1.417       .  A
C1217      C1218   1.410       .  A
C1217      C1220   1.450       .  S
C1218      C1222   1.450       .  S
C1219      N1226   1.157       .  T
C1220      N1227   1.157       .  T
C1221      N1225   1.158       .  T
C1222      N1228   1.157       .  T
C1223      N1232   1.157       .  T
C1224      N1230   1.157       .  T
C1233      C1234   1.408       .  A
C1233      C1238   1.403       .  A
C1233      C1251   1.451       .  S
C1234      C1235   1.408       .  A
C1234      C1239   1.477       .  S
C1235      C1236   1.402       .  A
C1235      C1240   1.451       .  S
C1236      C1237   1.412       .  A
C1236      C1252   1.451       .  S
C1237      C1238   1.412       .  A
C1238      C1241   1.451       .  S
C1239      C1242   1.406       .  A
C1239      C1246   1.402       .  A
C1240      N1257   1.157       .  T
C1241      N1259   1.157       .  T
C1242      C1243   1.405       .  A
C1242      C1247   1.453       .  S
C1243      C1244   1.420       .  A
C1243      C1249   1.452       .  S
C1244      C1245   1.423       .  A
C1245      C1246   1.404       .  A
C1245      C1248   1.450       .  S
C1246      C1250   1.453       .  S
C1247      N1254   1.157       .  T
C1248      N1255   1.157       .  T
C1249      N1253   1.157       .  T
C1250      N1256   1.157       .  T
C1251      N1260   1.157       .  T
C1252      N1258   1.157       .  T
C1261      C1262   1.414       .  A
C1261      C1266   1.405       .  A
C1261      C1279   1.452       .  S
C1262      C1263   1.411       .  A
C1262      C1267   1.491       .  S
C1263      C1264   1.406       .  A
C1263      C1268   1.451       .  S
C1264      C1265   1.412       .  A
C1264      C1280   1.451       .  S
C1265      C1266   1.410       .  A
C1266      C1269   1.451       .  S
C1267      C1270   1.409       .  A
C1267      C1274   1.410       .  A
C1268      N1285   1.157       .  T
C1269      N1287   1.157       .  T
C1270      C1271   1.408       .  A
C1270      C1275   1.452       .  S
C1271      C1272   1.420       .  A
C1271      C1277   1.452       .  S
C1272      C1273   1.417       .  A
C1273      C1274   1.407       .  A
C1273      C1276   1.451       .  S
C1274      C1278   1.452       .  S
C1275      N1282   1.157       .  T
C1276      N1283   1.157       .  T
C1277      N1281   1.158       .  T
C1278      N1284   1.157       .  T
C1279      N1288   1.157       .  T
C1280      N1286   1.157       .  T
C1289      C1290   1.412       .  A
C1289      C1294   1.406       .  A
C1289      C1307   1.451       .  S
C1290      C1291   1.415       .  A
C1290      C1295   1.494       .  S
C1291      C1292   1.410       .  A
C1291      C1296   1.450       .  S
C1292      C1293   1.409       .  A
C1292      C1308   1.450       .  S
C1293      C1294   1.411       .  A
C1294      C1297   1.452       .  S
C1295      C1298   1.412       .  A
C1295      C1302   1.409       .  A
C1296      N1313   1.157       .  T
C1297      N1315   1.157       .  T
C1298      C1299   1.412       .  A
C1298      C1303   1.451       .  S
C1299      C1300   1.414       .  A
C1299      C1305   1.449       .  S
C1300      C1301   1.418       .  A
C1301      C1302   1.406       .  A
C1301      C1304   1.453       .  S
C1302      C1306   1.453       .  S
C1303      N1310   1.157       .  T
C1304      N1311   1.157       .  T
C1305      N1309   1.157       .  T
C1306      N1312   1.157       .  T
C1307      N1316   1.157       .  T
C1308      N1314   1.157       .  T
C1317      C1318   1.410       .  A
C1317      C1322   1.407       .  A
C1317      C1335   1.451       .  S
C1318      C1319   1.405       .  A
C1318      C1323   1.484       .  S
C1319      C1320   1.405       .  A
C1319      C1324   1.452       .  S
C1320      C1321   1.417       .  A
C1320      C1336   1.449       .  S
C1321      C1322   1.412       .  A
C1322      C1325   1.450       .  S
C1323      C1326   1.411       .  A
C1323      C1330   1.408       .  A
C1324      N1341   1.157       .  T
C1325      N1343   1.157       .  T
C1326      C1327   1.404       .  A
C1326      C1331   1.451       .  S
C1327      C1328   1.408       .  A
C1327      C1333   1.451       .  S
C1328      C1329   1.411       .  A
C1329      C1330   1.407       .  A
C1329      C1332   1.451       .  S
C1330      C1334   1.450       .  S
C1331      N1338   1.157       .  T
C1332      N1339   1.157       .  T
C1333      N1337   1.157       .  T
C1334      N1340   1.157       .  T
C1335      N1344   1.157       .  T
C1336      N1342   1.156       .  T
C1345      C1346   1.412       .  A
C1345      C1350   1.408       .  A
C1345      C1363   1.450       .  S
C1346      C1347   1.410       .  A
C1346      C1351   1.488       .  S
C1347      C1348   1.403       .  A
C1347      C1352   1.451       .  S
C1348      C1349   1.408       .  A
C1348      C1364   1.450       .  S
C1349      C1350   1.410       .  A
C1350      C1353   1.451       .  S
C1351      C1354   1.412       .  A
C1351      C1358   1.409       .  A
C1352      N1369   1.157       .  T
C1353      N1371   1.157       .  T
C1354      C1355   1.407       .  A
C1354      C1359   1.452       .  S
C1355      C1356   1.413       .  A
C1355      C1361   1.451       .  S
C1356      C1357   1.414       .  A
C1357      C1358   1.406       .  A
C1357      C1360   1.451       .  S
C1358      C1362   1.451       .  S
C1359      N1366   1.157       .  T
C1360      N1367   1.157       .  T
C1361      N1365   1.157       .  T
C1362      N1368   1.157       .  T
C1363      N1372   1.157       .  T
C1364      N1370   1.156       .  T
C1373      C1374   1.408       .  A
C1373      C1378   1.404       .  A
C1373      C1391   1.451       .  S
C1374      C1375   1.410       .  A
C1374      C1379   1.475       .  S
C1375      C1376   1.399       .  A
C1375      C1380   1.452       .  S
C1376      C1377   1.408       .  A
C1376      C1392   1.453       .  S
C1377      C1378   1.412       .  A
C1378      C1381   1.451       .  S
C1379      C1382   1.408       .  A
C1379      C1386   1.410       .  A
C1380      N1397   1.157       .  T
C1381      N1399   1.157       .  T
C1382      C1383   1.400       .  A
C1382      C1387   1.452       .  S
C1383      C1384   1.411       .  A
C1383      C1389   1.452       .  S
C1384      C1385   1.407       .  A
C1385      C1386   1.402       .  A
C1385      C1388   1.450       .  S
C1386      C1390   1.451       .  S
C1387      N1394   1.157       .  T
C1388      N1395   1.157       .  T
C1389      N1393   1.157       .  T
C1390      N1396   1.157       .  T
C1391      N1400   1.157       .  T
C1392      N1398   1.157       .  T
C1401      C1402   1.414       .  A
C1401      C1406   1.410       .  A
C1401      C1419   1.452       .  S
C1402      C1403   1.412       .  A
C1402      C1407   1.503       .  S
C1403      C1404   1.413       .  A
C1403      C1408   1.451       .  S
C1404      C1405   1.420       .  A
C1404      C1420   1.451       .  S
C1405      C1406   1.415       .  A
C1406      C1409   1.451       .  S
C1407      C1410   1.417       .  A
C1407      C1414   1.412       .  A
C1408      N1425   1.157       .  T
C1409      N1427   1.157       .  T
C1410      C1411   1.414       .  A
C1410      C1415   1.450       .  S
C1411      C1412   1.411       .  A
C1411      C1417   1.450       .  S
C1412      C1413   1.411       .  A
C1413      C1414   1.405       .  A
C1413      C1416   1.450       .  S
C1414      C1418   1.451       .  S
C1415      N1422   1.157       .  T
C1416      N1423   1.157       .  T
C1417      N1421   1.157       .  T
C1418      N1424   1.157       .  T
C1419      N1428   1.157       .  T
C1420      N1426   1.157       .  T
C1429      C1430   1.413       .  A
C1429      C1434   1.414       .  A
C1429      C1447   1.449       .  S
C1430      C1431   1.412       .  A
C1430      C1435   1.504       .  S
C1431      C1432   1.413       .  A
C1431      C1436   1.450       .  S
C1432      C1433   1.413       .  A
C1432      C1448   1.450       .  S
C1433      C1434   1.412       .  A
C1434      C1437   1.450       .  S
C1435      C1438   1.409       .  A
C1435      C1442   1.413       .  A
C1436      N1453   1.157       .  T
C1437      N1455   1.157       .  T
C1438      C1439   1.412       .  A
C1438      C1443   1.452       .  S
C1439      C1440   1.421       .  A
C1439      C1445   1.452       .  S
C1440      C1441   1.415       .  A
C1441      C1442   1.417       .  A
C1441      C1444   1.449       .  S
C1442      C1446   1.449       .  S
C1443      N1450   1.157       .  T
C1444      N1451   1.157       .  T
C1445      N1449   1.158       .  T
C1446      N1452   1.157       .  T
C1447      N1456   1.157       .  T
C1448      N1454   1.157       .  T
C1457      C1458   1.408       .  A
C1457      C1462   1.407       .  A
C1457      C1475   1.450       .  S
C1458      C1459   1.412       .  A
C1458      C1463   1.489       .  S
C1459      C1460   1.409       .  A
C1459      C1464   1.451       .  S
C1460      C1461   1.410       .  A
C1460      C1476   1.451       .  S
C1461      C1462   1.413       .  A
C1462      C1465   1.451       .  S
C1463      C1466   1.410       .  A
C1463      C1470   1.411       .  A
C1464      N1481   1.157       .  T
C1465      N1483   1.157       .  T
C1466      C1467   1.407       .  A
C1466      C1471   1.450       .  S
C1467      C1468   1.412       .  A
C1467      C1473   1.451       .  S
C1468      C1469   1.410       .  A
C1469      C1470   1.407       .  A
C1469      C1472   1.451       .  S
C1470      C1474   1.450       .  S
C1471      N1478   1.157       .  T
C1472      N1479   1.157       .  T
C1473      N1477   1.157       .  T
C1474      N1480   1.157       .  T
C1475      N1484   1.157       .  T
C1476      N1482   1.157       .  T
C1485      C1486   1.409       .  A
C1485      C1490   1.409       .  A
C1485      C1503   1.450       .  S
C1486      C1487   1.410       .  A
C1486      C1491   1.488       .  S
C1487      C1488   1.405       .  A
C1487      C1492   1.452       .  S
C1488      C1489   1.413       .  A
C1488      C1504   1.451       .  S
C1489      C1490   1.415       .  A
C1490      C1493   1.450       .  S
C1491      C1494   1.408       .  A
C1491      C1498   1.407       .  A
C1492      N1509   1.157       .  T
C1493      N1511   1.157       .  T
C1494      C1495   1.407       .  A
C1494      C1499   1.452       .  S
C1495      C1496   1.419       .  A
C1495      C1501   1.451       .  S
C1496      C1497   1.421       .  A
C1497      C1498   1.408       .  A
C1497      C1500   1.452       .  S
C1498      C1502   1.451       .  S
C1499      N1506   1.157       .  T
C1500      N1507   1.157       .  T
C1501      N1505   1.157       .  T
C1502      N1508   1.157       .  T
C1503      N1512   1.157       .  T
C1504      N1510   1.157       .  T
C1513      C1514   1.409       .  A
C1513      C1518   1.406       .  A
C1513      C1531   1.452       .  S
C1514      C1515   1.406       .  A
C1514      C1519   1.482       .  S
C1515      C1516   1.405       .  A
C1515      C1520   1.451       .  S
C1516      C1517   1.415       .  A
C1516      C1532   1.452       .  S
C1517      C1518   1.414       .  A
C1518      C1521   1.450       .  S
C1519      C1522   1.407       .  A
C1519      C1526   1.410       .  A
C1520      N1537   1.157       .  T
C1521      N1539   1.157       .  T
C1522      C1523   1.403       .  A
C1522      C1527   1.452       .  S
C1523      C1524   1.412       .  A
C1523      C1529   1.449       .  S
C1524      C1525   1.410       .  A
C1525      C1526   1.405       .  A
C1525      C1528   1.451       .  S
C1526      C1530   1.450       .  S
C1527      N1534   1.157       .  T
C1528      N1535   1.157       .  T
C1529      N1533   1.156       .  T
C1530      N1536   1.157       .  T
C1531      N1540   1.157       .  T
C1532      N1538   1.157       .  T
C1541      C1542   1.412       .  A
C1541      C1546   1.411       .  A
C1541      C1559   1.451       .  S
C1542      C1543   1.412       .  A
C1542      C1547   1.501       .  S
C1543      C1544   1.415       .  A
C1543      C1548   1.449       .  S
C1544      C1545   1.413       .  A
C1544      C1560   1.449       .  S
C1545      C1546   1.412       .  A
C1546      C1549   1.450       .  S
C1547      C1550   1.408       .  A
C1547      C1554   1.410       .  A
C1548      N1565   1.157       .  T
C1549      N1567   1.157       .  T
C1550      C1551   1.413       .  A
C1550      C1555   1.451       .  S
C1551      C1552   1.423       .  A
C1551      C1557   1.451       .  S
C1552      C1553   1.418       .  A
C1553      C1554   1.415       .  A
C1553      C1556   1.449       .  S
C1554      C1558   1.450       .  S
C1555      N1562   1.157       .  T
C1556      N1563   1.157       .  T
C1557      N1561   1.157       .  T
C1558      N1564   1.157       .  T
C1559      N1568   1.157       .  T
C1560      N1566   1.157       .  T
C1569      C1570   1.411       .  A
C1569      C1574   1.411       .  A
C1569      C1587   1.451       .  S
C1570      C1571   1.412       .  A
C1570      C1575   1.500       .  S
C1571      C1572   1.412       .  A
C1571      C1576   1.450       .  S
C1572      C1573   1.416       .  A
C1572      C1588   1.452       .  S
C1573      C1574   1.416       .  A
C1574      C1577   1.451       .  S
C1575      C1578   1.412       .  A
C1575      C1582   1.413       .  A
C1576      N1593   1.157       .  T
C1577      N1595   1.157       .  T
C1578      C1579   1.411       .  A
C1578      C1583   1.451       .  S
C1579      C1580   1.414       .  A
C1579      C1585   1.450       .  S
C1580      C1581   1.414       .  A
C1581      C1582   1.412       .  A
C1581      C1584   1.450       .  S
C1582      C1586   1.451       .  S
C1583      N1590   1.157       .  T
C1584      N1591   1.157       .  T
C1585      N1589   1.157       .  T
C1586      N1592   1.157       .  T
C1587      N1596   1.157       .  T
C1588      N1594   1.158       .  T
C1597      C1598   1.413       .  A
C1597      C1602   1.416       .  A
C1597      C1615   1.450       .  S
C1598      C1599   1.411       .  A
C1598      C1603   1.502       .  S
C1599      C1600   1.410       .  A
C1599      C1604   1.451       .  S
C1600      C1601   1.414       .  A
C1600      C1616   1.451       .  S
C1601      C1602   1.415       .  A
C1602      C1605   1.450       .  S
C1603      C1606   1.413       .  A
C1603      C1610   1.413       .  A
C1604      N1621   1.157       .  T
C1605      N1623   1.157       .  T
C1606      C1607   1.413       .  A
C1606      C1611   1.450       .  S
C1607      C1608   1.413       .  A
C1607      C1613   1.450       .  S
C1608      C1609   1.413       .  A
C1609      C1610   1.412       .  A
C1609      C1612   1.450       .  S
C1610      C1614   1.450       .  S
C1611      N1618   1.157       .  T
C1612      N1619   1.157       .  T
C1613      N1617   1.157       .  T
C1614      N1620   1.157       .  T
C1615      N1624   1.157       .  T
C1616      N1622   1.157       .  T
C1625      C1626   1.412       .  A
C1625      C1630   1.409       .  A
C1625      C1643   1.452       .  S
C1626      C1627   1.407       .  A
C1626      C1631   1.490       .  S
C1627      C1628   1.406       .  A
C1627      C1632   1.451       .  S
C1628      C1629   1.418       .  A
C1628      C1644   1.452       .  S
C1629      C1630   1.415       .  A
C1630      C1633   1.451       .  S
C1631      C1634   1.412       .  A
C1631      C1638   1.410       .  A
C1632      N1649   1.157       .  T
C1633      N1651   1.157       .  T
C1634      C1635   1.405       .  A
C1634      C1639   1.452       .  S
C1635      C1636   1.410       .  A
C1635      C1641   1.450       .  S
C1636      C1637   1.414       .  A
C1637      C1638   1.408       .  A
C1637      C1640   1.451       .  S
C1638      C1642   1.450       .  S
C1639      N1646   1.157       .  T
C1640      N1647   1.157       .  T
C1641      N1645   1.157       .  T
C1642      N1648   1.157       .  T
C1643      N1652   1.157       .  T
C1644      N1650   1.157       .  T
C1653      C1654   1.409       .  A
C1653      C1658   1.413       .  A
C1653      C1671   1.451       .  S
C1654      C1655   1.409       .  A
C1654      C1659   1.497       .  S
C1655      C1656   1.412       .  A
C1655      C1660   1.451       .  S
C1656      C1657   1.421       .  A
C1656      C1672   1.452       .  S
C1657      C1658   1.418       .  A
C1658      C1661   1.450       .  S
C1659      C1662   1.412       .  A
C1659      C1666   1.411       .  A
C1660      N1677   1.157       .  T
C1661      N1679   1.157       .  T
C1662      C1663   1.410       .  A
C1662      C1667   1.450       .  S
C1663      C1664   1.411       .  A
C1663      C1669   1.450       .  S
C1664      C1665   1.413       .  A
C1665      C1666   1.411       .  A
C1665      C1668   1.450       .  S
C1666      C1670   1.449       .  S
C1667      N1674   1.157       .  T
C1668      N1675   1.157   1_554  T
C1669      N1673   1.157       .  T
C1670      N1676   1.157       .  T
C1671      N1680   1.157       .  T
C1672      N1678   1.157       .  T
C1681      C1682   1.409       .  A
C1681      C1686   1.411       .  A
C1681      C1699   1.452       .  S
C1682      C1683   1.409       .  A
C1682      C1687   1.495       .  S
C1683      C1684   1.411       .  A
C1683      C1688   1.451       .  S
C1684      C1685   1.418       .  A
C1684      C1700   1.451       .  S
C1685      C1686   1.420       .  A
C1686      C1689   1.450       .  S
C1687      C1690   1.411       .  A
C1687      C1694   1.411       .  A
C1688      N1705   1.157       .  T
C1689      N1707   1.157       .  T
C1690      C1691   1.409       .  A
C1690      C1695   1.450       .  S
C1691      C1692   1.413       .  A
C1691      C1697   1.451       .  S
C1692      C1693   1.413       .  A
C1693      C1694   1.410       .  A
C1693      C1696   1.450       .  S
C1694      C1698   1.451       .  S
C1695      N1702   1.157       .  T
C1696      N1703   1.157       .  T
C1697      N1701   1.157   1_554  T
C1698      N1704   1.157       .  T
C1699      N1708   1.157       .  T
C1700      N1706   1.157       .  T
C1709      C1710   1.413       .  A
C1709      C1714   1.408       .  A
C1709      C1727   1.450       .  S
C1710      C1711   1.409       .  A
C1710      C1715   1.488       .  S
C1711      C1712   1.404       .  A
C1711      C1716   1.451       .  S
C1712      C1713   1.411       .  A
C1712      C1728   1.451       .  S
C1713      C1714   1.407       .  A
C1714      C1717   1.450       .  S
C1715      C1718   1.409       .  A
C1715      C1722   1.409       .  A
C1716      N1733   1.157       .  T
C1717      N1735   1.157       .  T
C1718      C1719   1.406       .  A
C1718      C1723   1.453       .  S
C1719      C1720   1.418       .  A
C1719      C1725   1.453       .  S
C1720      C1721   1.415       .  A
C1721      C1722   1.409       .  A
C1721      C1724   1.450       .  S
C1722      C1726   1.451       .  S
C1723      N1730   1.157       .  T
C1724      N1731   1.157       .  T
C1725      N1729   1.158       .  T
C1726      N1732   1.157       .  T
C1727      N1736   1.157       .  T
C1728      N1734   1.157       .  T
C1737      C1738   1.411       .  A
C1737      C1742   1.412       .  A
C1737      C1755   1.449       .  S
C1738      C1739   1.413       .  A
C1738      C1743   1.496       .  S
C1739      C1740   1.408       .  A
C1739      C1744   1.451       .  S
C1740      C1741   1.411       .  A
C1740      C1756   1.451       .  S
C1741      C1742   1.412       .  A
C1742      C1745   1.450       .  S
C1743      C1746   1.410       .  A
C1743      C1750   1.409       .  A
C1744      N1761   1.157       .  T
C1745      N1763   1.157       .  T
C1746      C1747   1.413       .  A
C1746      C1751   1.450       .  S
C1747      C1748   1.415       .  A
C1747      C1753   1.449       .  S
C1748      C1749   1.419       .  A
C1749      C1750   1.410       .  A
C1749      C1752   1.451       .  S
C1750      C1754   1.452       .  S
C1751      N1758   1.157       .  T
C1752      N1759   1.157       .  T
C1753      N1757   1.157       .  T
C1754      N1760   1.157       .  T
C1755      N1764   1.157       .  T
C1756      N1762   1.157       .  T
C1765      C1766   1.408       .  A
C1765      C1770   1.408       .  A
C1765      C1783   1.451       .  S
C1766      C1767   1.409       .  A
C1766      C1771   1.489       .  S
C1767      C1768   1.410       .  A
C1767      C1772   1.451       .  S
C1768      C1769   1.415       .  A
C1768      C1784   1.450       .  S
C1769      C1770   1.415       .  A
C1770      C1773   1.452       .  S
C1771      C1774   1.410       .  A
C1771      C1778   1.411       .  A
C1772      N1789   1.157       .  T
C1773      N1791   1.157       .  T
C1774      C1775   1.407       .  A
C1774      C1779   1.450       .  S
C1775      C1776   1.410       .  A
C1775      C1781   1.451       .  S
C1776      C1777   1.411       .  A
C1777      C1778   1.408       .  A
C1777      C1780   1.451       .  S
C1778      C1782   1.450       .  S
C1779      N1786   1.157       .  T
C1780      N1787   1.157       .  T
C1781      N1785   1.157       .  T
C1782      N1788   1.157       .  T
C1783      N1792   1.157       .  T
C1784      N1790   1.157       .  T
C1793      C1794   1.405       .  A
C1793      C1798   1.407       .  A
C1793      C1811   1.452       .  S
C1794      C1795   1.407       .  A
C1794      C1799   1.487       .  S
C1795      C1796   1.410       .  A
C1795      C1800   1.451       .  S
C1796      C1797   1.421       .  A
C1796      C1812   1.451       .  S
C1797      C1798   1.423       .  A
C1798      C1801   1.450       .  S
C1799      C1802   1.410       .  A
C1799      C1806   1.411       .  A
C1800      N1817   1.157       .  T
C1801      N1819   1.157       .  T
C1802      C1803   1.409       .  A
C1802      C1807   1.449       .  S
C1803      C1804   1.410       .  A
C1803      C1809   1.450       .  S
C1804      C1805   1.410       .  A
C1805      C1806   1.404       .  A
C1805      C1808   1.451       .  S
C1806      C1810   1.452       .  S
C1807      N1814   1.157       .  T
C1808      N1815   1.157       .  T
C1809      N1813   1.157       .  T
C1810      N1816   1.157       .  T
C1811      N1820   1.157       .  T
C1812      N1818   1.158       .  T
C1821      C1822   1.407       .  A
C1821      C1826   1.407       .  A
C1821      C1839   1.452       .  S
C1822      C1823   1.409       .  A
C1822      C1827   1.484       .  S
C1823      C1824   1.405       .  A
C1823      C1828   1.452       .  S
C1824      C1825   1.414       .  A
C1824      C1840   1.452       .  S
C1825      C1826   1.416       .  A
C1826      C1829   1.449       .  S
C1827      C1830   1.410       .  A
C1827      C1834   1.410       .  A
C1828      N1845   1.157       .  T
C1829      N1847   1.157       .  T
C1830      C1831   1.403       .  A
C1830      C1835   1.451       .  S
C1831      C1832   1.410       .  A
C1831      C1837   1.452       .  S
C1832      C1833   1.412       .  A
C1833      C1834   1.407       .  A
C1833      C1836   1.451       .  S
C1834      C1838   1.451       .  S
C1835      N1842   1.157       .  T
C1836      N1843   1.157       .  T
C1837      N1841   1.157   1_554  T
C1838      N1844   1.157       .  T
C1839      N1848   1.157       .  T
C1840      N1846   1.157       .  T
C1849      C1850   1.409       .  A
C1849      C1854   1.412       .  A
C1849      C1867   1.450       .  S
C1850      C1851   1.408       .  A
C1850      C1855   1.488       .  S
C1851      C1852   1.404       .  A
C1851      C1856   1.453       .  S
C1852      C1853   1.417       .  A
C1852      C1868   1.452       .  S
C1853      C1854   1.417       .  A
C1854      C1857   1.451       .  S
C1855      C1858   1.411       .  A
C1855      C1862   1.411       .  A
C1856      N1873   1.157       .  T
C1857      N1875   1.157       .  T
C1858      C1859   1.405       .  A
C1858      C1863   1.451       .  S
C1859      C1860   1.410       .  A
C1859      C1865   1.451       .  S
C1860      C1861   1.410       .  A
C1861      C1862   1.408       .  A
C1861      C1864   1.450       .  S
C1862      C1866   1.450       .  S
C1863      N1870   1.157       .  T
C1864      N1871   1.157       .  T
C1865      N1869   1.157       .  T
C1866      N1872   1.157       .  T
C1867      N1876   1.157       .  T
C1868      N1874   1.157       .  T
C1877      C1878   1.411       .  A
C1877      C1882   1.414       .  A
C1877      C1895   1.450       .  S
C1878      C1879   1.410       .  A
C1878      C1883   1.499       .  S
C1879      C1880   1.410       .  A
C1879      C1884   1.452       .  S
C1880      C1881   1.415       .  A
C1880      C1896   1.449       .  S
C1881      C1882   1.416       .  A
C1882      C1885   1.450       .  S
C1883      C1886   1.412       .  A
C1883      C1890   1.413       .  A
C1884      N1901   1.157       .  T
C1885      N1903   1.157       .  T
C1886      C1887   1.411       .  A
C1886      C1891   1.450       .  S
C1887      C1888   1.412       .  A
C1887      C1893   1.450       .  S
C1888      C1889   1.411       .  A
C1889      C1890   1.411       .  A
C1889      C1892   1.450       .  S
C1890      C1894   1.450       .  S
C1891      N1898   1.157       .  T
C1892      N1899   1.157       .  T
C1893      N1897   1.157       .  T
C1894      N1900   1.157       .  T
C1895      N1904   1.157       .  T
C1896      N1902   1.156       .  T
C1905      C1906   1.408       .  A
C1905      C1910   1.405       .  A
C1905      C1923   1.451       .  S
C1906      C1907   1.408       .  A
C1906      C1911   1.483       .  S
C1907      C1908   1.406       .  A
C1907      C1912   1.451       .  S
C1908      C1909   1.414       .  A
C1908      C1924   1.452       .  S
C1909      C1910   1.413       .  A
C1910      C1913   1.450       .  S
C1911      C1914   1.408       .  A
C1911      C1918   1.407       .  A
C1912      N1929   1.157       .  T
C1913      N1931   1.156       .  T
C1914      C1915   1.407       .  A
C1914      C1919   1.452       .  S
C1915      C1916   1.417       .  A
C1915      C1921   1.451       .  S
C1916      C1917   1.416       .  A
C1917      C1918   1.406       .  A
C1917      C1920   1.451       .  S
C1918      C1922   1.451       .  S
C1919      N1926   1.157       .  T
C1920      N1927   1.157       .  T
C1921      N1925   1.157       .  T
C1922      N1928   1.157       .  T
C1923      N1932   1.157       .  T
C1924      N1930   1.157       .  T
C1933      C1934   1.410       .  A
C1933      C1938   1.407       .  A
C1933      C1951   1.451       .  S
C1934      C1935   1.409       .  A
C1934      C1939   1.486       .  S
C1935      C1936   1.406       .  A
C1935      C1940   1.450       .  S
C1936      C1937   1.410       .  A
C1936      C1952   1.450       .  S
C1937      C1938   1.411       .  A
C1938      C1941   1.450       .  S
C1939      C1942   1.407       .  A
C1939      C1946   1.408       .  A
C1940      N1957   1.157       .  T
C1941      N1959   1.157       .  T
C1942      C1943   1.406       .  A
C1942      C1947   1.452       .  S
C1943      C1944   1.416       .  A
C1943      C1949   1.450       .  S
C1944      C1945   1.416       .  A
C1945      C1946   1.409       .  A
C1945      C1948   1.451       .  S
C1946      C1950   1.451       .  S
C1947      N1954   1.157       .  T
C1948      N1955   1.157       .  T
C1949      N1953   1.156       .  T
C1950      N1956   1.157       .  T
C1951      N1960   1.157       .  T
C1952      N1958   1.157       .  T
