geometry optimzed in LAMMPS
_audit_creation_date              2020-11-30 
_audit_creation_method            'lammps2cif' 
_symmetry_space_group_name_H-M    'P1' 
_symmetry_Int_Tables_number       1 
_symmetry_cell_setting            triclinic 
loop_ 
_symmetry_equiv_pos_as_xyz 
  x,y,z 
_cell_length_a                    67.8645736 
_cell_length_b                    67.85037450188568 
_cell_length_c                    32.082144303957634 
_cell_angle_alpha                 90.17495062629091 
_cell_angle_beta                  89.93985247816937 
_cell_angle_gamma                 89.98601250950236 
loop_ 
_atom_site_label 
_atom_site_type_symbol 
_atom_site_fract_x 
_atom_site_fract_y 
_atom_site_fract_z 
_atom_site_charge 
O1          O  0.36536796  0.84851644  0.00008050    -0.70000
O2          O  0.36420143  0.90446883  0.00132619    -0.70200
O3          O  0.36468043  0.87671811  0.94151570    -0.70100
O4          O  0.36486720  0.87630869  0.05989571    -0.70100
O5          O  0.39691685  0.87694165  0.05963396    -0.70000
O6          O  0.39672823  0.87739475  0.94122808    -0.70100
O7          O  0.39625284  0.90513114  0.00108838    -0.70000
O8          O  0.39741664  0.84918161  0.99975152    -0.70200
V9          V  0.36540206  0.87651253  0.00070380     1.35200
V10         V  0.39620589  0.87714682  0.00043530     1.35200
C11         C  0.38159305  0.83940417  0.99968928     0.79200
C12         C  0.38002990  0.91423577  0.00137363     0.79300
C13         C  0.38067087  0.87713832  0.92138691     0.79200
C14         C  0.38091840  0.87658075  0.07974338     0.79100
O15         O  0.36509156  0.84850876  0.50029240    -0.70000
O16         O  0.36425549  0.90444112  0.50036714    -0.70200
O17         O  0.36475437  0.87642942  0.44118234    -0.70100
O18         O  0.36462535  0.87657199  0.55958471    -0.70100
O19         O  0.39667567  0.87705530  0.55966773    -0.70000
O20         O  0.39680779  0.87688886  0.44126305    -0.70100
O21         O  0.39630895  0.90494480  0.50042493    -0.70000
O22         O  0.39714417  0.84895044  0.50040023    -0.70200
V23         V  0.36530882  0.87648972  0.50036997     1.35200
V24         V  0.39611552  0.87694323  0.50045006     1.35200
C25         C  0.38124520  0.83928292  0.50025579     0.79200
C26         C  0.38012600  0.91413253  0.50032676     0.79300
C27         C  0.38080165  0.87667542  0.42124964     0.79200
C28         C  0.38062842  0.87689654  0.57962014     0.79100
O29         O  0.39176748  0.14106951  0.00206023    -0.70000
O30         O  0.39212831  0.08511014  0.00197920    -0.70200
O31         O  0.39199518  0.11297133  0.94278756    -0.70100
O32         O  0.39188907  0.11314682  0.06121790    -0.70100
O33         O  0.35983376  0.11294120  0.06115398    -0.70000
O34         O  0.35994121  0.11278358  0.94276834    -0.70100
O35         O  0.36007129  0.08489629  0.00190188    -0.70000
O36         O  0.35971247  0.14087335  0.00202040    -0.70200
V37         V  0.39132287  0.11307812  0.00201211     1.35200
V38         V  0.36051345  0.11288514  0.00196332     1.35200
C39         C  0.37567959  0.15041917  0.00209615     0.79200
C40         C  0.37616692  0.07556357  0.00185893     0.79300
C41         C  0.37597848  0.11278232  0.92278781     0.79200
C42         C  0.37584177  0.11303742  0.08116542     0.79100
O43         O  0.39135846  0.14112893  0.50191691    -0.70000
O44         O  0.39202411  0.08516593  0.50164530    -0.70200
O45         O  0.39163494  0.11308943  0.44259392    -0.70100
O46         O  0.39174243  0.11317794  0.56099036    -0.70100
O47         O  0.35968998  0.11277420  0.56117408    -0.70000
O48         O  0.35958079  0.11274830  0.44277981    -0.70100
O49         O  0.35997012  0.08479077  0.50177917    -0.70000
O50         O  0.35930552  0.14078501  0.50218415    -0.70200
V51         V  0.39106547  0.11314021  0.50178829     1.35200
V52         V  0.36025804  0.11278783  0.50197426     1.35200
C53         C  0.37523124  0.15040693  0.50217444     0.79200
C54         C  0.37611075  0.07553342  0.50161325     0.79300
C55         C  0.37559316  0.11284397  0.42270903     0.79200
C56         C  0.37573161  0.11296284  0.58106737     0.79100
O57         O  0.86520199  0.64035110  0.00117346    -0.70000
O58         O  0.92116881  0.64122947  0.00205918    -0.70200
O59         O  0.89338203  0.64143896  0.94243233    -0.70100
O60         O  0.89293716  0.64013434  0.06079656    -0.70100
O61         O  0.89342880  0.60808544  0.05905264    -0.70000
O62         O  0.89392957  0.60938990  0.94067789    -0.70100
O63         O  0.92170069  0.60918342  0.00035467    -0.70000
O64         O  0.86570431  0.60830125  0.99935026    -0.70200
V65         V  0.89318579  0.64016347  0.00158156     1.35200
V66         V  0.89368380  0.60936130  0.99989005     1.35200
C67         C  0.85601012  0.62418480  0.00009854     0.79200
C68         C  0.93089398  0.62536094  0.00138833     0.79300
C69         C  0.89370852  0.62563093  0.92157903     0.79200
C70         C  0.89309269  0.62389512  0.07990919     0.79100
O71         O  0.86513441  0.64043891  0.50031143    -0.70000
O72         O  0.92108682  0.64143036  0.50026383    -0.70200
O73         O  0.89311228  0.64028603  0.44103281    -0.70100
O74         O  0.89305414  0.64154765  0.55942583    -0.70100
O75         O  0.89364875  0.60949817  0.56071759    -0.70000
O76         O  0.89366411  0.60823833  0.44233420    -0.70100
O77         O  0.92169742  0.60938561  0.50152568    -0.70000
O78         O  0.86568496  0.60838912  0.50166280    -0.70200
V79         V  0.89311341  0.64029888  0.50026375     1.35200
V80         V  0.89366820  0.60949721  0.50151728     1.35200
C81         C  0.85596699  0.62425985  0.50112604     0.79200
C82         C  0.93085169  0.62559340  0.50100472     0.79300
C83         C  0.89335826  0.62405054  0.42169163     0.79200
C84         C  0.89331298  0.62573057  0.58004540     0.79100
O85         O  0.15799936  0.61319684  0.00000308    -0.70000
O86         O  0.10201453  0.61339449  0.00101682    -0.70200
O87         O  0.12980402  0.61330325  0.94127858    -0.70100
O88         O  0.13021992  0.61332046  0.05969131    -0.70100
O89         O  0.13031663  0.64538193  0.05986446    -0.70000
O90         O  0.12990810  0.64536472  0.94149055    -0.70100
O91         O  0.10208340  0.64545187  0.00119114    -0.70000
O92         O  0.15812371  0.64525592  0.00019256    -0.70200
V93         V  0.13001085  0.61392942  0.00049181     1.35200
V94         V  0.13010646  0.64474230  0.00067172     1.35200
C95         C  0.16751825  0.62918284  0.99999898     0.79200
C96         C  0.09258604  0.62944122  0.00132981     0.79300
C97         C  0.12979138  0.62933731  0.92140255     0.79200
C98         C  0.13033210  0.62935706  0.07976011     0.79100
O99         O  0.15802860  0.61333326  0.50044671    -0.70000
O100        O  0.10203859  0.61328400  0.50042024    -0.70200
O101        O  0.13011195  0.61334860  0.44123842    -0.70100
O102        O  0.12997191  0.61328933  0.55965524    -0.70100
O103        O  0.12993265  0.64535070  0.55990964    -0.70000
O104        O  0.13007007  0.64541020  0.44152178    -0.70100
O105        O  0.10198903  0.64534171  0.50070559    -0.70000
O106        O  0.15801595  0.64539324  0.50072608    -0.70200
V107        V  0.13003879  0.61393859  0.50044682     1.35200
V108        V  0.13000464  0.64475182  0.50071161     1.35200
C109        C  0.16747675  0.62936069  0.50049211     0.79200
C110        C  0.09255154  0.62929865  0.50064134     0.79300
C111        C  0.13013479  0.62939085  0.42139693     0.79200
C112        C  0.12988028  0.62931528  0.57976713     0.79100
O113        O  0.65691973  0.13951205  0.00233381    -0.70000
O114        O  0.65808040  0.08351840  0.00103341    -0.70200
O115        O  0.65738303  0.11174567  0.94245391    -0.70100
O116        O  0.65760865  0.11135727  0.06087676    -0.70100
O117        O  0.62555949  0.11073303  0.06116074    -0.70000
O118        O  0.62533638  0.11105355  0.94279846    -0.70100
O119        O  0.62603493  0.08287303  0.00142972    -0.70000
O120        O  0.62487252  0.13887025  0.00258548    -0.70200
V121        V  0.65687735  0.11151104  0.00167374     1.35200
V122        V  0.62607643  0.11088498  0.00198195     1.35200
C123        C  0.64070574  0.14864260  0.00276550     0.79200
C124        C  0.64224846  0.07373901  0.00100480     0.79300
C125        C  0.64131651  0.11149409  0.92264114     0.79200
C126        C  0.64161064  0.11108437  0.08099779     0.79100
O127        O  0.65676650  0.13956066  0.50280209    -0.70000
O128        O  0.65804638  0.08360785  0.50088363    -0.70200
O129        O  0.65747802  0.11198350  0.44262438    -0.70100
O130        O  0.65728589  0.11123793  0.56107260    -0.70100
O131        O  0.62523852  0.11057403  0.56084642    -0.70000
O132        O  0.62543275  0.11120506  0.44250135    -0.70100
O133        O  0.62600110  0.08287153  0.50081975    -0.70000
O134        O  0.62471921  0.13886346  0.50249860    -0.70200
V135        V  0.65677288  0.11157592  0.50184558     1.35200
V136        V  0.62597252  0.11088422  0.50167264     1.35200
C137        C  0.64053776  0.14865762  0.50291301     0.79200
C138        C  0.64224653  0.07378927  0.50054546     0.79300
C139        C  0.64147251  0.11175758  0.42258220     0.79200
C140        C  0.64121770  0.11084801  0.58094634     0.79100
O141        O  0.63050505  0.84658170  0.00080286    -0.70000
O142        O  0.63010593  0.90254544  0.99969420    -0.70200
O143        O  0.63073099  0.87425033  0.94102648    -0.70100
O144        O  0.62992541  0.87488599  0.05945928    -0.70100
O145        O  0.66197701  0.87512058  0.06030612    -0.70000
O146        O  0.66278039  0.87446839  0.94193862    -0.70100
O147        O  0.66215520  0.90280417  0.00056824    -0.70000
O148        O  0.66255496  0.84677578  0.00171462    -0.70200
V149        V  0.63094182  0.87456820  0.00026232     1.35200
V150        V  0.66174554  0.87478574  0.00111571     1.35200
C151        C  0.64658235  0.83722627  0.00149841     0.79200
C152        C  0.64604846  0.91212839  0.99988472     0.79300
C153        C  0.64689557  0.87430656  0.92148971     0.79200
C154        C  0.64582645  0.87508338  0.07986151     0.79100
O155        O  0.63039226  0.84668387  0.50137449    -0.70000
O156        O  0.63005761  0.90266351  0.50068319    -0.70200
O157        O  0.62982672  0.87440220  0.44184192    -0.70100
O158        O  0.63065407  0.87491372  0.56026789    -0.70100
O159        O  0.66270389  0.87509347  0.55916664    -0.70000
O160        O  0.66187920  0.87458030  0.44082356    -0.70100
O161        O  0.66210713  0.90286001  0.49961814    -0.70000
O162        O  0.66244317  0.84685042  0.50031358    -0.70200
V163        V  0.63085449  0.87467463  0.50102776     1.35200
V164        V  0.66165899  0.87484789  0.50000539     1.35200
C165        C  0.64646832  0.83731657  0.50090914     0.79200
C166        C  0.64601822  0.91221612  0.50001533     0.79300
C167        C  0.64572532  0.87436921  0.42135998     0.79200
C168        C  0.64682629  0.87505398  0.57970610     0.79100
N169        N  0.35689332  0.34184717  0.00664776    -0.34800
N170        N  0.35724032  0.38484141  0.00103805    -0.55400
N171        N  0.40024358  0.38401546  0.99527983    -0.34800
N172        N  0.39988899  0.34099132  0.00086678    -0.55400
C173        C  0.33730645  0.34523524  0.00271544     0.28800
C174        C  0.35975002  0.32217747  0.00243029     0.28800
C175        C  0.39740386  0.40370867  0.99911034     0.28800
C176        C  0.41983648  0.38062004  0.99901541     0.28800
C177        C  0.33752626  0.38223373  0.00326196     0.37400
C178        C  0.36039515  0.40448681  0.99932263     0.37400
C179        C  0.39673747  0.32135650  0.00274619     0.37400
C180        C  0.41960235  0.34359377  0.99897389     0.37400
C181        C  0.32758197  0.32743247  0.99710502    -0.20100
C182        C  0.34169112  0.31293840  0.99690753    -0.20100
C183        C  0.41549163  0.41296017  0.00408562    -0.20100
C184        C  0.42959321  0.39844918  0.00401721    -0.20100
C185        C  0.32808042  0.40036332  0.00291368    -0.21200
C186        C  0.34253572  0.41443118  0.00037059    -0.21200
C187        C  0.41459239  0.31139819  0.00204082    -0.21200
C188        C  0.42905398  0.32546170  0.99960595    -0.21200
C189        C  0.32777516  0.36381482  0.00395987    -0.16500
C190        C  0.37805735  0.31214101  0.00339234    -0.16500
C191        C  0.42933884  0.36201200  0.99826167    -0.16500
C192        C  0.37907412  0.41373781  0.99849364    -0.16500
H193        H  0.31192493  0.32509614  0.99300420     0.16400
H194        H  0.33893165  0.29735045  0.99263551     0.16400
H195        H  0.41827373  0.42856603  0.00796982     0.16400
H196        H  0.44526535  0.40079543  0.00783345     0.16400
H197        H  0.31239095  0.40318942  0.00409467     0.14700
H198        H  0.34014038  0.43020017  0.99971544     0.14700
H199        H  0.41697668  0.29562892  0.00286233     0.14700
H200        H  0.44474718  0.32263260  0.99868015     0.14700
H201        H  0.36746416  0.35213266  0.01490641     0.27900
H202        H  0.38962781  0.37368058  0.98763267     0.27900
N203        N  0.35709868  0.34175465  0.50381605    -0.34800
N204        N  0.40006231  0.34116264  0.49743498    -0.55400
N205        N  0.40016630  0.38421660  0.49240191    -0.34800
N206        N  0.35719283  0.38478942  0.49865800    -0.55400
C207        C  0.36006064  0.32209072  0.49971199     0.28800
C208        C  0.33748987  0.34504044  0.49989504     0.28800
C209        C  0.41977058  0.38090085  0.49624897     0.28800
C210        C  0.39721525  0.40386565  0.49690163     0.28800
C211        C  0.39704468  0.32149699  0.49895088     0.37400
C212        C  0.41974374  0.34388705  0.49490529     0.37400
C213        C  0.33749467  0.38205718  0.50068230     0.37400
C214        C  0.36022172  0.40445601  0.49712870     0.37400
C215        C  0.34204760  0.31274890  0.49433628    -0.20100
C216        C  0.32786208  0.32717523  0.49441676    -0.20100
C217        C  0.42941608  0.39873869  0.50200794    -0.20100
C218        C  0.41523791  0.41317424  0.50240036    -0.20100
C219        C  0.41494432  0.31164701  0.49723858    -0.21200
C220        C  0.42929927  0.32580603  0.49461353    -0.21200
C221        C  0.32793700  0.40013412  0.50050623    -0.21200
C222        C  0.34230576  0.41429558  0.49821361    -0.21200
C223        C  0.37843608  0.31216090  0.50038341    -0.16500
C224        C  0.32785441  0.36357882  0.50097143    -0.16500
C225        C  0.37884098  0.41380706  0.49640203    -0.16500
C226        C  0.42938256  0.36235701  0.49483717    -0.16500
H227        H  0.33937627  0.29714343  0.49009849     0.16400
H228        H  0.31221820  0.32475281  0.49031713     0.16400
H229        H  0.44506563  0.40113491  0.50608674     0.16400
H230        H  0.41792232  0.42876321  0.50687024     0.16400
H231        H  0.41742751  0.29588843  0.49756992     0.14700
H232        H  0.44499858  0.32307168  0.49306247     0.14700
H233        H  0.31222962  0.40286612  0.50161319     0.14700
H234        H  0.33981668  0.43005178  0.49770300     0.14700
H235        H  0.36763409  0.35211350  0.51186377     0.27900
H236        H  0.38963095  0.37388652  0.48417882     0.27900
N237        N  0.35888565  0.64838592  0.99491560    -0.34800
N238        N  0.35835015  0.60529572  0.00010112    -0.55400
N239        N  0.40131691  0.60520167  0.00527667    -0.34800
N240        N  0.40188280  0.64825436  0.00005027    -0.55400
C241        C  0.33924830  0.64540091  0.99926982     0.28800
C242        C  0.36217333  0.66799933  0.99906997     0.28800
C243        C  0.39805178  0.58559156  0.00102635     0.28800
C244        C  0.42095552  0.60819633  0.00105609     0.28800
C245        C  0.33868683  0.60835878  0.99886974     0.37400
C246        C  0.36107101  0.58558581  0.00199270     0.37400
C247        C  0.39917422  0.66796587  0.99855246     0.37400
C248        C  0.42153290  0.64520382  0.00190096     0.37400
C249        C  0.32991455  0.66342250  0.00489949    -0.20100
C250        C  0.34432248  0.67762381  0.00476593    -0.20100
C251        C  0.41590721  0.57599461  0.99517006    -0.20100
C252        C  0.43030457  0.59020302  0.99519483    -0.20100
C253        C  0.32884302  0.59044372  0.99983820    -0.21200
C254        C  0.34299575  0.57604824  0.00186923    -0.21200
C255        C  0.41724994  0.67750932  0.99933763    -0.21200
C256        C  0.43138701  0.66311578  0.00151748    -0.21200
C257        C  0.32933906  0.62699896  0.99871639    -0.16500
C258        C  0.38071371  0.67762505  0.99830978    -0.16500
C259        C  0.43086636  0.62657465  0.00230580    -0.16500
C260        C  0.37954215  0.57592819  0.00226901    -0.16500
H261        H  0.31432645  0.66609319  0.00934329     0.16400
H262        H  0.34190577  0.69326718  0.00909599     0.16400
H263        H  0.41834133  0.56035665  0.99080135     0.16400
H264        H  0.44590233  0.58755443  0.99084214     0.16400
H265        H  0.31308665  0.58797378  0.99950347     0.14700
H266        H  0.34025972  0.56034076  0.00290804     0.14700
H267        H  0.41999669  0.69322109  0.99876927     0.14700
H268        H  0.44713797  0.66558670  0.00244048     0.14700
H269        H  0.36923252  0.63784048  0.98679764     0.27900
H270        H  0.39098692  0.61570823  0.01374233     0.27900
N271        N  0.35893463  0.64830981  0.50329215    -0.34800
N272        N  0.35824957  0.60529421  0.49756170    -0.55400
N273        N  0.40125228  0.60510668  0.49173093    -0.34800
N274        N  0.40193400  0.64813335  0.49745632    -0.55400
C275        C  0.33928422  0.64537925  0.49903892     0.28800
C276        C  0.36227134  0.66790580  0.49929981     0.28800
C277        C  0.39794961  0.58548800  0.49528765     0.28800
C278        C  0.42092981  0.60801766  0.49532838     0.28800
C279        C  0.33860299  0.60837925  0.49954576     0.37400
C280        C  0.36093664  0.58558239  0.49554972     0.37400
C281        C  0.39925973  0.66782713  0.50013014     0.37400
C282        C  0.42158682  0.64504074  0.49588316     0.37400
C283        C  0.33000705  0.66340398  0.49336635    -0.20100
C284        C  0.34445630  0.67756433  0.49353683    -0.20100
C285        C  0.41582008  0.57579508  0.49996473    -0.20100
C286        C  0.43026266  0.58995360  0.49998439    -0.20100
C287        C  0.32872607  0.59048107  0.49882441    -0.21200
C288        C  0.34284800  0.57606703  0.49623104    -0.21200
C289        C  0.41735757  0.67733214  0.50017681    -0.21200
C290        C  0.43147668  0.66292434  0.49740565    -0.21200
C291        C  0.32930239  0.62703212  0.50016264    -0.16500
C292        C  0.38080883  0.67750548  0.50081470    -0.16500
C293        C  0.43088053  0.62638562  0.49488701    -0.16500
C294        C  0.37939189  0.57590094  0.49461637    -0.16500
H295        H  0.31442224  0.66610535  0.48905561     0.16400
H296        H  0.34208401  0.69321247  0.48938651     0.16400
H297        H  0.41824084  0.56012354  0.50356784     0.16400
H298        H  0.44588046  0.58721946  0.50362216     0.16400
H299        H  0.31296968  0.58803551  0.49967198     0.14700
H300        H  0.34008414  0.56036148  0.49519886     0.14700
H301        H  0.42012952  0.69302677  0.50176729     0.14700
H302        H  0.44723828  0.66536139  0.49697668     0.14700
H303        H  0.36922986  0.63779592  0.51173389     0.27900
H304        H  0.39086669  0.61570218  0.48439185     0.27900
N305        N  0.66307125  0.33957247  0.00507576    -0.34800
N306        N  0.62007543  0.33994402  0.00036515    -0.55400
N307        N  0.62087727  0.38296047  0.99541397    -0.34800
N308        N  0.66389073  0.38259642  0.00009197    -0.55400
C309        C  0.65965589  0.31997620  0.00123196     0.28800
C310        C  0.68270294  0.34241801  0.00026338     0.28800
C311        C  0.60120156  0.38009439  0.99907263     0.28800
C312        C  0.62424669  0.40253212  0.99984435     0.28800
C313        C  0.62267394  0.32021796  0.00191996     0.37400
C314        C  0.60045537  0.34309906  0.99792958     0.37400
C315        C  0.68353526  0.37942419  0.00122344     0.37400
C316        C  0.66125764  0.40232510  0.99903141     0.37400
C317        C  0.67740866  0.31023065  0.99509036    -0.20100
C318        C  0.69189372  0.32433939  0.99441886    -0.20100
C319        C  0.59192408  0.39814003  0.00471702    -0.20100
C320        C  0.60641473  0.41224811  0.00523708    -0.20100
C321        C  0.60456201  0.31076746  0.00050291    -0.21200
C322        C  0.59051427  0.32523427  0.99786366    -0.21200
C323        C  0.69347385  0.39728894  0.00086942    -0.21200
C324        C  0.67938394  0.41177338  0.99946925    -0.21200
C325        C  0.64108178  0.31046464  0.00273815    -0.16500
C326        C  0.69275391  0.36072494  0.00106931    -0.16500
C327        C  0.64282529  0.41205847  0.99910804    -0.16500
C328        C  0.59121310  0.36177583  0.99749821    -0.16500
H329        H  0.67970657  0.29456459  0.99084402     0.16400
H330        H  0.70744233  0.32156383  0.98964947     0.16400
H331        H  0.57631506  0.40088704  0.00858953     0.16400
H332        H  0.60404879  0.42790002  0.00955503     0.16400
H333        H  0.60174050  0.29506762  0.00085297     0.14700
H334        H  0.57476115  0.32284170  0.99636963     0.14700
H335        H  0.70924388  0.39966671  0.00131671     0.14700
H336        H  0.68219261  0.42747563  0.99906241     0.14700
H337        H  0.65284288  0.35015631  0.01363745     0.27900
H338        H  0.63118643  0.37239203  0.98724911     0.27900
N339        N  0.66308522  0.33952752  0.50562664    -0.34800
N340        N  0.62012470  0.33989432  0.49890024    -0.55400
N341        N  0.62098998  0.38289975  0.49326594    -0.34800
N342        N  0.66394567  0.38253391  0.49994946    -0.55400
C343        C  0.65971821  0.31992868  0.50157649     0.28800
C344        C  0.68279105  0.34236727  0.50235555     0.28800
C345        C  0.60131143  0.38006870  0.49713648     0.28800
C346        C  0.62437001  0.40250510  0.49695434     0.28800
C347        C  0.62271335  0.32017043  0.50050130     0.37400
C348        C  0.60050805  0.34306326  0.49653013     0.37400
C349        C  0.68356493  0.37938135  0.50258536     0.37400
C350        C  0.66135980  0.40224683  0.49763060     0.37400
C351        C  0.67756884  0.31017253  0.49695419    -0.20100
C352        C  0.69206977  0.32427575  0.49743668    -0.20100
C353        C  0.59205751  0.39816416  0.50223551    -0.20100
C354        C  0.60655386  0.41227358  0.50206977    -0.20100
C355        C  0.60459334  0.31072862  0.49911259    -0.21200
C356        C  0.59055133  0.32520518  0.49655115    -0.21200
C357        C  0.69351009  0.39724202  0.50214681    -0.21200
C358        C  0.67947360  0.41169594  0.49891775    -0.21200
C359        C  0.64111847  0.31041860  0.50170491    -0.16500
C360        C  0.69281072  0.36069877  0.50343081    -0.16500
C361        C  0.64296126  0.41200142  0.49597835    -0.16500
C362        C  0.59128961  0.36175000  0.49609978    -0.16500
H363        H  0.67993716  0.29449897  0.49302233     0.16400
H364        H  0.70769169  0.32149053  0.49395411     0.16400
H365        H  0.57645622  0.40095032  0.50612184     0.16400
H366        H  0.60421229  0.42795789  0.50588177     0.16400
H367        H  0.60175769  0.29503243  0.49963300     0.14700
H368        H  0.57479363  0.32282394  0.49518546     0.14700
H369        H  0.70926391  0.39963603  0.50358241     0.14700
H370        H  0.68230733  0.42738684  0.49793252     0.14700
H371        H  0.65271855  0.35014872  0.51313122     0.27900
H372        H  0.63130732  0.37228721  0.48537465     0.27900
N373        N  0.66505754  0.64597808  0.00507939    -0.34800
N374        N  0.66510471  0.60301202  0.99869879    -0.55400
N375        N  0.62209833  0.60344947  0.99337518    -0.34800
N376        N  0.62207010  0.64642878  0.99956325    -0.55400
C377        C  0.68464370  0.64278228  0.00034724     0.28800
C378        C  0.66200494  0.66563423  0.00153795     0.28800
C379        C  0.62513533  0.58382105  0.99762672     0.28800
C380        C  0.60248357  0.60666487  0.99743606     0.28800
C381        C  0.68479551  0.60579293  0.00030101     0.37400
C382        C  0.66213080  0.58334535  0.99697571     0.37400
C383        C  0.62502792  0.66608406  0.00215465     0.37400
C384        C  0.60238278  0.64365876  0.99741054     0.37400
C385        C  0.69417124  0.66068639  0.99485364    -0.20100
C386        C  0.67993948  0.67505723  0.99565271    -0.20100
C387        C  0.60715954  0.57442874  0.00317429    -0.20100
C388        C  0.59291862  0.58878793  0.00301900    -0.20100
C389        C  0.69441562  0.58775158  0.99951719    -0.21200
C390        C  0.68007833  0.57355175  0.99737898    -0.21200
C391        C  0.60708580  0.67587758  0.00157753    -0.21200
C392        C  0.59276718  0.66169896  0.99845790    -0.21200
C393        C  0.69435094  0.62429608  0.00088948    -0.16500
C394        C  0.64360918  0.67548318  0.00324868    -0.16500
C395        C  0.59279935  0.62516157  0.99661628    -0.16500
C396        C  0.64353914  0.57395934  0.99682374    -0.16500
H397        H  0.70977511  0.66317109  0.99022431     0.16400
H398        H  0.68252548  0.69068234  0.99169600     0.16400
H399        H  0.60454127  0.55883038  0.00748364     0.16400
H400        H  0.57728600  0.58631929  0.00722671     0.16400
H401        H  0.71013636  0.58507035  0.00017644     0.14700
H402        H  0.68260634  0.55780255  0.99655133     0.14700
H403        H  0.60455032  0.69161805  0.00292870     0.14700
H404        H  0.57705120  0.66438833  0.99753715     0.14700
H405        H  0.65462233  0.63558096  0.01342814     0.27900
H406        H  0.63258390  0.61383031  0.98524439     0.27900
N407        N  0.66517810  0.64591725  0.50568948    -0.34800
N408        N  0.66494772  0.60292828  0.49890176    -0.55400
N409        N  0.62198621  0.60367434  0.49310593    -0.34800
N410        N  0.62220946  0.64666521  0.49974729    -0.55400
C411        C  0.68476740  0.64257255  0.50157628     0.28800
C412        C  0.66228694  0.66558124  0.50167113     0.28800
C413        C  0.62488284  0.58398738  0.49661014     0.28800
C414        C  0.60238842  0.60699750  0.49713594     0.28800
C415        C  0.68465169  0.60557736  0.50079142     0.37400
C416        C  0.66186666  0.58329604  0.49625809     0.37400
C417        C  0.62530421  0.66630609  0.50198583     0.37400
C418        C  0.60250285  0.64401058  0.49788393     0.37400
C419        C  0.69446251  0.66039323  0.49618951    -0.20100
C420        C  0.68032934  0.67485623  0.49621991    -0.20100
C421        C  0.60683686  0.57467390  0.50164083    -0.20100
C422        C  0.59269549  0.58913605  0.50195554    -0.20100
C423        C  0.69416842  0.58749084  0.49927550    -0.21200
C424        C  0.67975786  0.57339910  0.49634790    -0.21200
C425        C  0.60742146  0.67621280  0.50159043    -0.21200
C426        C  0.59299988  0.66211167  0.49895297    -0.21200
C427        C  0.69432478  0.62401162  0.50217993    -0.16500
C428        C  0.64395512  0.67557563  0.50254490    -0.16500
C429        C  0.59282009  0.62556589  0.49684142    -0.16500
C430        C  0.64322513  0.57401027  0.49554752    -0.16500
H431        H  0.71010954  0.66275560  0.49194361     0.16400
H432        H  0.68305987  0.69044379  0.49204972     0.16400
H433        H  0.60410830  0.55905640  0.50529407     0.16400
H434        H  0.57703781  0.58673543  0.50591278     0.16400
H435        H  0.70987277  0.58471292  0.49989156     0.14700
H436        H  0.68220234  0.55764808  0.49479244     0.14700
H437        H  0.60499284  0.69197354  0.50274870     0.14700
H438        H  0.57729829  0.66489469  0.49817321     0.14700
H439        H  0.65462568  0.63559267  0.51376832     0.27900
H440        H  0.63255749  0.61404473  0.48545441     0.27900
O441        O  0.15683788  0.34843903  0.99943676    -0.70000
O442        O  0.10089912  0.34715583  0.00085748    -0.70200
O443        O  0.12856174  0.34784234  0.94094922    -0.70100
O444        O  0.12919440  0.34781133  0.05935658    -0.70100
O445        O  0.12842185  0.37986300  0.05959773    -0.70000
O446        O  0.12785832  0.37989692  0.94120879    -0.70100
O447        O  0.10012325  0.37920562  0.00105163    -0.70000
O448        O  0.15615282  0.38049170  0.99977775    -0.70200
V449        V  0.12885825  0.34844110  0.00014871     1.35200
V450        V  0.12815141  0.37924671  0.00039763     1.35200
C451        C  0.16594803  0.36465650  0.99948209     0.79200
C452        C  0.09105669  0.36294578  0.00116920     0.79300
C453        C  0.12812186  0.36387538  0.92109979     0.79200
C454        C  0.12891098  0.36383709  0.07946598     0.79100
O455        O  0.15689980  0.34852967  0.50037184    -0.70000
O456        O  0.10095419  0.34725832  0.50012177    -0.70200
O457        O  0.12900666  0.34790983  0.44104478    -0.70100
O458        O  0.12883194  0.34790789  0.55943911    -0.70100
O459        O  0.12815388  0.37996315  0.55965853    -0.70000
O460        O  0.12821783  0.37996222  0.44126276    -0.70100
O461        O  0.10019865  0.37931038  0.50044133    -0.70000
O462        O  0.15621042  0.38058219  0.50045642    -0.70200
V463        V  0.12891291  0.34852912  0.50025059     1.35200
V464        V  0.12821247  0.37933586  0.50045285     1.35200
C465        C  0.16600852  0.36475061  0.50039750     0.79200
C466        C  0.09112770  0.36305877  0.50027026     0.79300
C467        C  0.12860406  0.36393801  0.42117051     0.79200
C468        C  0.12845220  0.36393255  0.57952909     0.79100
O469        O  0.86378195  0.37527730  0.00123232    -0.70000
O470        O  0.91980286  0.37591182  0.00003368    -0.70200
O471        O  0.89153673  0.37527556  0.94143694    -0.70100
O472        O  0.89207212  0.37598781  0.05980941    -0.70100
O473        O  0.89244021  0.34393112  0.06049009    -0.70000
O474        O  0.89191178  0.34321866  0.94206857    -0.70100
O475        O  0.92014580  0.34385643  0.00068198    -0.70000
O476        O  0.86418488  0.34322203  0.00186527    -0.70200
V477        V  0.89179974  0.37499279  0.00064022     1.35200
V478        V  0.89215800  0.34418337  0.00126383     1.35200
C479        C  0.85453061  0.35912641  0.00169724     0.79200
C480        C  0.92942915  0.35997571  0.00021324     0.79300
C481        C  0.89165723  0.35913120  0.92176826     0.79200
C482        C  0.89239935  0.36008904  0.08013232     0.79100
O483        O  0.86406178  0.37532382  0.50056428    -0.70000
O484        O  0.92003496  0.37576358  0.50251624    -0.70200
O485        O  0.89259690  0.37587921  0.44229942    -0.70100
O486        O  0.89157617  0.37517336  0.56070943    -0.70100
O487        O  0.89180257  0.34311494  0.55961705    -0.70000
O488        O  0.89290060  0.34382235  0.44126807    -0.70100
O489        O  0.92030874  0.34370534  0.50155441    -0.70000
O490        O  0.86430495  0.34326970  0.49943775    -0.70200
V491        V  0.89206124  0.37491168  0.50148762     1.35200
V492        V  0.89231327  0.34410150  0.50047469     1.35200
C493        C  0.85472221  0.35923189  0.49983830     0.79200
C494        C  0.92961910  0.35981300  0.50238719     0.79300
C495        C  0.89301372  0.35996648  0.42180102     0.79200
C496        C  0.89157261  0.35901607  0.58014165     0.79100
C497        C  0.89149688  0.35835880  0.79462906     0.18800
C498        C  0.87361774  0.35859702  0.77283567    -0.10300
C499        C  0.87358518  0.35851617  0.72923942    -0.11200
C500        C  0.89143146  0.35820218  0.70725230     0.20400
C501        C  0.90931268  0.35786089  0.72904060    -0.13200
C502        C  0.90934528  0.35794192  0.77264248    -0.11500
C503        C  0.89139472  0.35842004  0.66240059     0.01300
C504        C  0.89140518  0.35871042  0.62483423    -0.31500
C505        C  0.89152414  0.35862557  0.83948777     0.02700
C506        C  0.89155366  0.35886951  0.87706272    -0.33200
H507        H  0.85973280  0.35890594  0.78952379     0.13800
H508        H  0.85967612  0.35877506  0.71270270     0.13600
H509        H  0.92319779  0.35760996  0.71234794     0.13400
H510        H  0.92325490  0.35774126  0.78918117     0.12500
C511        C  0.89376695  0.36045105  0.29464965     0.18800
C512        C  0.87953005  0.34957090  0.27293045    -0.10300
C513        C  0.87930111  0.34966218  0.22935244    -0.11200
C514        C  0.89331167  0.36063068  0.20726416     0.20400
C515        C  0.90755109  0.37153795  0.22895900    -0.13200
C516        C  0.90778009  0.37144688  0.27257848    -0.11500
C517        C  0.89308282  0.36059770  0.16240252     0.01300
C518        C  0.89276933  0.36038937  0.12483167    -0.31500
C519        C  0.89386944  0.36037951  0.33952073     0.02700
C520        C  0.89358864  0.36021941  0.37709888    -0.33200
H521        H  0.86861519  0.34103564  0.28967443     0.13800
H522        H  0.86822594  0.34118033  0.21289976     0.13600
H523        H  0.91845437  0.38007527  0.21218752     0.13400
H524        H  0.91884444  0.37993130  0.28905498     0.12500
C525        C  0.98972291  0.36058888  0.50242629     0.18800
C526        C  0.99972053  0.36723254  0.46691267    -0.10300
C527        C  0.02032435  0.36764886  0.46628317    -0.11200
C528        C  0.03102670  0.36142727  0.50117293     0.20400
C529        C  0.02103115  0.35474095  0.53666497    -0.13200
C530        C  0.00042080  0.35432478  0.53729480    -0.11500
C531        C  0.05223162  0.36200513  0.50063581     0.01300
C532        C  0.06999177  0.36252895  0.50035009    -0.31500
C533        C  0.96851736  0.36022486  0.50301545     0.02700
C534        C  0.95075334  0.35999934  0.50298642    -0.33200
H535        H  0.99159555  0.37210310  0.43977519     0.13800
H536        H  0.02789700  0.37284583  0.43867753     0.13600
H537        H  0.02915871  0.34989545  0.56381824     0.13400
H538        H  0.99284258  0.34915330  0.56491512     0.12500
C539        C  0.12815907  0.36373602  0.70663687     0.18800
C540        C  0.14591026  0.36206624  0.72860619    -0.10300
C541        C  0.14583438  0.36206543  0.77219850    -0.11200
C542        C  0.12800687  0.36373391  0.79399381     0.20400
C543        C  0.11025005  0.36535326  0.77202672    -0.13200
C544        C  0.11032590  0.36535392  0.72843091    -0.11500
C545        C  0.12794683  0.36382090  0.83883947     0.01300
C546        C  0.12797450  0.36387899  0.87640766    -0.31500
C547        C  0.12825193  0.36383484  0.66179113     0.02700
C548        C  0.12834764  0.36391323  0.62422335    -0.33200
H549        H  0.15978053  0.36079672  0.71205960     0.13800
H550        H  0.15964711  0.36079430  0.78888143     0.13600
H551        H  0.09638219  0.36663966  0.78857619     0.13400
H552        H  0.09651535  0.36664175  0.71174642     0.12500
C553        C  0.12895437  0.36400365  0.20664024     0.18800
C554        C  0.14664562  0.36594581  0.22875345    -0.10300
C555        C  0.14650613  0.36597376  0.27235416    -0.11200
C556        C  0.12867770  0.36405940  0.29403111     0.20400
C557        C  0.11097962  0.36216207  0.27192518    -0.13200
C558        C  0.11111906  0.36213391  0.22832166    -0.11500
C559        C  0.12856780  0.36399813  0.33889139     0.01300
C560        C  0.12856918  0.36394916  0.37646686    -0.31500
C561        C  0.12908970  0.36391112  0.16176796     0.02700
C562        C  0.12908091  0.36384657  0.12418364    -0.33200
H563        H  0.16051888  0.36741352  0.21231398     0.13800
H564        H  0.16027412  0.36745953  0.28913812     0.13600
H565        H  0.09710852  0.36068252  0.28836951     0.13400
H566        H  0.09735213  0.36063593  0.21153919     0.12500
C567        C  0.98957986  0.36060731  0.00045704     0.18800
C568        C  0.99959654  0.37861141  0.00337740    -0.10300
C569        C  0.02020311  0.37899179  0.00379525    -0.11200
C570        C  0.03091311  0.36137072  0.00130141     0.20400
C571        C  0.02090366  0.34334864  0.99838294    -0.13200
C572        C  0.00028041  0.34296803  0.99796423    -0.11500
C573        C  0.05213743  0.36183746  0.00155683     0.01300
C574        C  0.06990667  0.36238296  0.00152875    -0.31500
C575        C  0.96835624  0.36027766  0.00012056     0.02700
C576        C  0.95058145  0.36015512  0.00002907    -0.33200
H577        H  0.99148305  0.39233801  0.00533056     0.13800
H578        H  0.02777749  0.39300904  0.00603442     0.13600
H579        H  0.02902655  0.32962841  0.99641046     0.13400
H580        H  0.99269503  0.32895729  0.99570457     0.12500
C581        C  0.79453741  0.35938972  0.50088441     0.18800
C582        C  0.78399308  0.34163123  0.50034689    -0.10300
C583        C  0.76337332  0.34183783  0.50098954    -0.11200
C584        C  0.75319610  0.35980377  0.50219960     0.20400
C585        C  0.76373170  0.37756225  0.50275240    -0.13200
C586        C  0.78435010  0.37735612  0.50210983    -0.11500
C587        C  0.73197940  0.36002524  0.50285263     0.01300
C588        C  0.71420284  0.36028546  0.50327234    -0.31500
C589        C  0.81577295  0.35918458  0.50019379     0.02700
C590        C  0.83355511  0.35911423  0.49979171    -0.33200
H591        H  0.79170207  0.32765212  0.49941814     0.13800
H592        H  0.75537772  0.32801852  0.50054374     0.13600
H593        H  0.75601512  0.39153938  0.50367873     0.13400
H594        H  0.79233644  0.39117938  0.50255318     0.12500
C595        C  0.64285949  0.51366011  0.49530808     0.18800
C596        C  0.62504512  0.50322833  0.49519199    -0.10300
C597        C  0.62515364  0.48261250  0.49487082    -0.11200
C598        C  0.64307407  0.47235166  0.49467386     0.20400
C599        C  0.66088923  0.48278414  0.49476203    -0.13200
C600        C  0.66078068  0.50340005  0.49508225    -0.11500
C601        C  0.64316336  0.45114862  0.49474105     0.01300
C602        C  0.64312000  0.43337913  0.49519502    -0.31500
C603        C  0.64277219  0.53486185  0.49552846     0.02700
C604        C  0.64288007  0.55263179  0.49555812    -0.33200
H605        H  0.61110745  0.51102113  0.49535820     0.13800
H606        H  0.61129695  0.47468265  0.49484617     0.13600
H607        H  0.67482716  0.47499151  0.49465169     0.13400
H608        H  0.67463745  0.51133024  0.49516145     0.12500
C609        C  0.75308816  0.35933944  0.00038377     0.18800
C610        C  0.76320791  0.34132993  0.99955256    -0.10300
C611        C  0.78383205  0.34106289  0.00004800    -0.11200
C612        C  0.79439850  0.35880528  0.00138404     0.20400
C613        C  0.78425802  0.37678848  0.00221326    -0.13200
C614        C  0.76365947  0.37705479  0.00171768    -0.11500
C615        C  0.81561518  0.35864185  0.00176442     0.01300
C616        C  0.83338512  0.35882765  0.00188039    -0.31500
C617        C  0.73188870  0.35970812  0.00013246     0.02700
C618        C  0.71412616  0.36021956  0.00032198    -0.33200
H619        H  0.75517065  0.32754038  0.99855599     0.13800
H620        H  0.79151960  0.32706870  0.99938444     0.13600
H621        H  0.79227218  0.39058972  0.00323445     0.13400
H622        H  0.75598019  0.39105520  0.00240643     0.12500
C623        C  0.64297240  0.51366679  0.99952732     0.18800
C624        C  0.62507835  0.50339292  0.00102938    -0.10300
C625        C  0.62502518  0.48277689  0.00143273    -0.11200
C626        C  0.64286695  0.47238375  0.00034765     0.20400
C627        C  0.66074808  0.48266796  0.99899434    -0.13200
C628        C  0.66080115  0.50327030  0.99859035    -0.11500
C629        C  0.64285992  0.45119251  0.00029160     0.01300
C630        C  0.64292133  0.43342825  0.99990782    -0.31500
C631        C  0.64307397  0.53484731  0.99867252     0.02700
C632        C  0.64328859  0.55260068  0.99780024    -0.33200
H633        H  0.61121103  0.51130542  0.00176324     0.13800
H634        H  0.61111613  0.47495511  0.00246735     0.13600
H635        H  0.67461883  0.47476445  0.99813191     0.13400
H636        H  0.67471251  0.51108433  0.99742650     0.12500
C637        C  0.53249262  0.62557723  0.49797438     0.18800
C638        C  0.52218458  0.64346421  0.49864367    -0.10300
C639        C  0.50158112  0.64351300  0.49827032    -0.11200
C640        C  0.49120107  0.62567458  0.49721605     0.20400
C641        C  0.50150308  0.60777321  0.49677244    -0.13200
C642        C  0.52211827  0.60772441  0.49714704    -0.11500
C643        C  0.47001094  0.62577813  0.49632983     0.01300
C644        C  0.45225116  0.62602389  0.49555545    -0.31500
C645        C  0.55368557  0.62557619  0.49777560     0.02700
C646        C  0.57144868  0.62563234  0.49736994    -0.33200
H647        H  0.53006943  0.65734590  0.49929554     0.13800
H648        H  0.49375308  0.65743283  0.49864941     0.13600
H649        H  0.49361216  0.59389655  0.49598834     0.13400
H650        H  0.52995455  0.59380996  0.49663741     0.12500
C651        C  0.53247480  0.62534004  0.99940240     0.18800
C652        C  0.52232166  0.64332061  0.99927742    -0.10300
C653        C  0.50171932  0.64355335  0.00020593    -0.11200
C654        C  0.49119030  0.62580341  0.00127336     0.20400
C655        C  0.50134021  0.60781820  0.00150011    -0.13200
C656        C  0.52194850  0.60758539  0.00057409    -0.11500
C657        C  0.46999960  0.62604713  0.00188762     0.01300
C658        C  0.45223701  0.62627030  0.00215102    -0.31500
C659        C  0.55366358  0.62514086  0.99824217     0.02700
C660        C  0.57142501  0.62512557  0.99734379    -0.33200
H661        H  0.53032514  0.65712969  0.99839333     0.13800
H662        H  0.49400984  0.65753899  0.00001115     0.13600
H663        H  0.49333177  0.59401102  0.00230967     0.13400
H664        H  0.52966030  0.59360107  0.00069948     0.12500
C665        C  0.26748049  0.36409035  0.49962616     0.18800
C666        C  0.25739962  0.38210117  0.50133906    -0.10300
C667        C  0.23678551  0.38242552  0.50137778    -0.11200
C668        C  0.22615459  0.36473983  0.49969453     0.20400
C669        C  0.23624020  0.34672710  0.49782837    -0.13200
C670        C  0.25685722  0.34640307  0.49778989    -0.11500
C671        C  0.20493204  0.36506169  0.50000097     0.01300
C672        C  0.18715776  0.36512247  0.50025613    -0.31500
C673        C  0.28869030  0.36377324  0.50001263     0.02700
C674        C  0.30646416  0.36362725  0.50047649    -0.33200
H675        H  0.26546841  0.39586450  0.50275174     0.13800
H676        H  0.22914893  0.39643601  0.50280538     0.13600
H677        H  0.22817636  0.33296043  0.49649407     0.13400
H678        H  0.26450201  0.33239370  0.49644121     0.12500
C679        C  0.48970046  0.36220122  0.49655815     0.18800
C680        C  0.50006395  0.34433876  0.49686599    -0.10300
C681        C  0.52067373  0.34436779  0.49702244    -0.11200
C682        C  0.53098338  0.36225715  0.49687331     0.20400
C683        C  0.52061939  0.38011385  0.49674398    -0.13200
C684        C  0.50001400  0.38008489  0.49658831    -0.11500
C685        C  0.55216891  0.36228295  0.49663730     0.01300
C686        C  0.56992789  0.36215922  0.49635476    -0.31500
C687        C  0.46851269  0.36220239  0.49596444     0.02700
C688        C  0.45075253  0.36228401  0.49536956    -0.33200
H689        H  0.49222372  0.33042924  0.49686386     0.13800
H690        H  0.52855869  0.33047950  0.49714301     0.13600
H691        H  0.52845825  0.39402382  0.49664973     0.13400
H692        H  0.49213310  0.39397449  0.49637248     0.12500
C693        C  0.37931537  0.51552472  0.49570980     0.18800
C694        C  0.36144544  0.50518747  0.49524827    -0.10300
C695        C  0.36142768  0.48456969  0.49578071    -0.11200
C696        C  0.37928061  0.47419950  0.49678277     0.20400
C697        C  0.39715180  0.48453866  0.49730257    -0.13200
C698        C  0.39716946  0.50515875  0.49677248    -0.11500
C699        C  0.37925406  0.45298198  0.49701836     0.01300
C700        C  0.37913477  0.43520185  0.49689805    -0.31500
C701        C  0.37932437  0.53673500  0.49513289     0.02700
C702        C  0.37932770  0.55451046  0.49479370    -0.33200
H703        H  0.34755722  0.51305770  0.49444737     0.13800
H704        H  0.34752496  0.47672369  0.49535237     0.13600
H705        H  0.41104004  0.47666823  0.49805818     0.13400
H706        H  0.41107110  0.51300724  0.49715821     0.12500
C707        C  0.22608061  0.36466143  0.00130492     0.18800
C708        C  0.23660204  0.38232882  0.00532672    -0.10300
C709        C  0.25720788  0.38208416  0.00634492    -0.11200
C710        C  0.26739544  0.36417189  0.00336411     0.20400
C711        C  0.25688139  0.34648606  0.99949664    -0.13200
C712        C  0.23626664  0.34673062  0.99847540    -0.11500
C713        C  0.28860667  0.36398778  0.00392279     0.01300
C714        C  0.30638305  0.36393892  0.00405629    -0.31500
C715        C  0.20486615  0.36493471  0.00016293     0.02700
C716        C  0.18709551  0.36501213  0.99954137    -0.33200
H717        H  0.22888592  0.39627205  0.00760045     0.13800
H718        H  0.26519034  0.39584282  0.00934274     0.13600
H719        H  0.26460935  0.33254955  0.99716863     0.13400
H720        H  0.22828544  0.33297508  0.99541783     0.12500
C721        C  0.53092053  0.36222267  0.99779866     0.18800
C722        C  0.52048352  0.37999963  0.00044536    -0.10300
C723        C  0.49987730  0.37986894  0.00083997    -0.11200
C724        C  0.48964793  0.36196326  0.99858716     0.20400
C725        C  0.50008861  0.34418699  0.99601276    -0.13200
C726        C  0.52069163  0.34431776  0.99561733    -0.11500
C727        C  0.46846394  0.36184638  0.99867301     0.01300
C728        C  0.45070449  0.36185531  0.99853502    -0.31500
C729        C  0.55210028  0.36231939  0.99744493     0.02700
C730        C  0.56985631  0.36217801  0.99735258    -0.33200
H731        H  0.52826352  0.39392082  0.00218234     0.13800
H732        H  0.49193158  0.39369382  0.00283616     0.13600
H733        H  0.49231149  0.33026480  0.99425619     0.13400
H734        H  0.52863627  0.33049252  0.99360040     0.12500
C735        C  0.37965342  0.47414625  0.99986060     0.18800
C736        C  0.36178688  0.48448194  0.00149887    -0.10300
C737        C  0.36175778  0.50510528  0.00220012    -0.11200
C738        C  0.37959622  0.51549623  0.00125002     0.20400
C739        C  0.39746558  0.50515949  0.99960502    -0.13200
C740        C  0.39749465  0.48453244  0.99890774    -0.11500
C741        C  0.37955917  0.53672836  0.00178772     0.01300
C742        C  0.37953390  0.55451744  0.00205432    -0.31500
C743        C  0.37965576  0.45292032  0.99926989     0.02700
C744        C  0.37948052  0.43513682  0.99888115    -0.33200
H745        H  0.34790538  0.47660402  0.00224870     0.13800
H746        H  0.34785417  0.51293889  0.00345276     0.13600
H747        H  0.41134589  0.51303813  0.99883756     0.13400
H748        H  0.41139596  0.47669509  0.99764417     0.12500
C749        C  0.64523219  0.73589593  0.50083261     0.18800
C750        C  0.66330078  0.74587008  0.49963362    -0.10300
C751        C  0.66371650  0.76648557  0.49958434    -0.11200
C752        C  0.64606435  0.77719716  0.50072174     0.20400
C753        C  0.62800224  0.76720978  0.50176895    -0.13200
C754        C  0.62758711  0.74660354  0.50181669    -0.11500
C755        C  0.64644901  0.79840698  0.50087534     0.01300
C756        C  0.64655999  0.81617551  0.50096733    -0.31500
C757        C  0.64478015  0.71470575  0.50135877     0.02700
C758        C  0.64436253  0.69694629  0.50195589    -0.33200
H759        H  0.67703063  0.73772233  0.49885409     0.13800
H760        H  0.67776425  0.77405768  0.49874073     0.13600
H761        H  0.61426692  0.77534430  0.50262532     0.13400
H762        H  0.61353950  0.73902961  0.50273551     0.12500
C763        C  0.64476159  0.73581169  0.00431806     0.18800
C764        C  0.62719529  0.74664244  0.00578403    -0.10300
C765        C  0.62774907  0.76724914  0.00529024    -0.11200
C766        C  0.64586983  0.77710713  0.00332455     0.20400
C767        C  0.66343720  0.76626747  0.00195584    -0.13200
C768        C  0.66288296  0.74566071  0.00245134    -0.11500
C769        C  0.64641342  0.79831439  0.00264084     0.01300
C770        C  0.64665290  0.81608181  0.00207940    -0.31500
C771        C  0.64420280  0.71462067  0.00437160     0.02700
C772        C  0.64386155  0.69685636  0.00401201    -0.33200
H773        H  0.61310475  0.73916677  0.00720554     0.13800
H774        H  0.61407628  0.77548293  0.00636894     0.13600
H775        H  0.67752824  0.77373426  0.00044018     0.13400
H776        H  0.67655047  0.73741776  0.00128073     0.12500
C777        C  0.64772391  0.87494655  0.70688124     0.18800
C778        C  0.64395228  0.89233414  0.72918088    -0.10300
C779        C  0.64392756  0.89217395  0.77278703    -0.11200
C780        C  0.64767981  0.87462512  0.79429528     0.20400
C781        C  0.65154269  0.85725696  0.77199419    -0.13200
C782        C  0.65156719  0.85741715  0.72838662    -0.11500
C783        C  0.64746379  0.87441960  0.83917618     0.01300
C784        C  0.64721269  0.87429289  0.87676289    -0.31500
C785        C  0.64747968  0.87505778  0.66200505     0.02700
C786        C  0.64717191  0.87510509  0.62442377    -0.33200
H787        H  0.64096686  0.90597196  0.71287951     0.13800
H788        H  0.64093054  0.90569241  0.78970342     0.13600
H789        H  0.65447089  0.84360675  0.78829472     0.13400
H790        H  0.65450666  0.84388679  0.71146769     0.12500
C791        C  0.64541347  0.87423351  0.29428811     0.18800
C792        C  0.63561592  0.88929891  0.27290454    -0.10300
C793        C  0.63566755  0.88958318  0.22932714    -0.11200
C794        C  0.64551743  0.87479952  0.20695482     0.20400
C795        C  0.65533171  0.85973439  0.22833388    -0.13200
C796        C  0.65527995  0.85944998  0.27192688    -0.11500
C797        C  0.64552074  0.87506295  0.16211756     0.01300
C798        C  0.64557697  0.87516741  0.12455198    -0.31500
C799        C  0.64541583  0.87404060  0.33912066     0.02700
C800        C  0.64547086  0.87411588  0.37668246    -0.33200
H801        H  0.62796156  0.90081050  0.28990320     0.13800
H802        H  0.62803884  0.90130070  0.21310539     0.13600
H803        H  0.66299876  0.84823368  0.21132787     0.13400
H804        H  0.66292084  0.84774364  0.28816018     0.12500
C805        C  0.64020017  0.20876215  0.50306000     0.18800
C806        C  0.62243964  0.21928982  0.50403295    -0.10300
C807        C  0.62263606  0.23990326  0.50344945    -0.11200
C808        C  0.64059153  0.25006588  0.50189121     0.20400
C809        C  0.65835071  0.23954058  0.50094954    -0.13200
C810        C  0.65815461  0.21893046  0.50153209    -0.11500
C811        C  0.64079442  0.27126567  0.50146876     0.01300
C812        C  0.64095104  0.28903605  0.50141810    -0.31500
C813        C  0.64002779  0.18755443  0.50338883     0.02700
C814        C  0.64011520  0.16978868  0.50334863    -0.33200
H815        H  0.60847454  0.21157572  0.50520008     0.13800
H816        H  0.60882156  0.24790628  0.50422077     0.13600
H817        H  0.67231553  0.24725785  0.49977696     0.13400
H818        H  0.67197247  0.21093488  0.50075359     0.12500
C819        C  0.64497672  0.97235173  0.49922990     0.18800
C820        C  0.66251980  0.98318931  0.50149607    -0.10300
C821        C  0.66195651  0.00380278  0.50147483    -0.11200
C822        C  0.64384775  0.01366966  0.49918994     0.20400
C823        C  0.62631012  0.00283148  0.49682060    -0.13200
C824        C  0.62687332  0.98222103  0.49684115    -0.11500
C825        C  0.64325211  0.03488236  0.49948339     0.01300
C826        C  0.64275945  0.05264824  0.49990404    -0.31500
C827        C  0.64552984  0.95113663  0.49946846     0.02700
C828        C  0.64584932  0.93336566  0.49971513    -0.33200
H829        H  0.67660011  0.97571523  0.50334347     0.13800
H830        H  0.67560835  0.01203302  0.50331611     0.13600
H831        H  0.61222676  0.01030422  0.49504073     0.13400
H832        H  0.61321796  0.97399319  0.49506652     0.12500
C833        C  0.64066253  0.25010236  0.00386373     0.18800
C834        C  0.65844019  0.23960907  0.00276725    -0.10300
C835        C  0.65828133  0.21899274  0.00298434    -0.11200
C836        C  0.64034597  0.20877934  0.00428835     0.20400
C837        C  0.62256874  0.21927861  0.00550293    -0.13200
C838        C  0.62272805  0.23989774  0.00528731    -0.11500
C839        C  0.64020761  0.18755827  0.00402432     0.01300
C840        C  0.64030785  0.16978602  0.00349990    -0.31500
C841        C  0.64081801  0.27130810  0.00343406     0.02700
C842        C  0.64093226  0.28908002  0.00305763    -0.33200
H843        H  0.67239034  0.24735523  0.00166808     0.13800
H844        H  0.67211374  0.21102682  0.00202338     0.13600
H845        H  0.60861604  0.21153738  0.00650138     0.13400
H846        H  0.60889801  0.24787218  0.00614906     0.12500
C847        C  0.64096450  0.11117396  0.70810438     0.18800
C848        C  0.65676597  0.10291463  0.73003367    -0.10300
C849        C  0.65681973  0.10315627  0.77362221    -0.11200
C850        C  0.64107135  0.11165729  0.79549103     0.20400
C851        C  0.62526561  0.11993397  0.77357404    -0.13200
C852        C  0.62521191  0.11969238  0.72996179    -0.11500
C853        C  0.64110952  0.11177402  0.84035626     0.01300
C854        C  0.64120969  0.11169761  0.87793400    -0.31500
C855        C  0.64097326  0.11095255  0.66323853     0.02700
C856        C  0.64109661  0.11082258  0.62565888    -0.33200
H857        H  0.66902391  0.09629991  0.71345239     0.13800
H858        H  0.66910982  0.09670800  0.79025124     0.13600
H859        H  0.61300694  0.12653881  0.79017039     0.13400
H860        H  0.61292102  0.12613080  0.71331881     0.12500
C861        C  0.64111693  0.11222870  0.29546251     0.18800
C862        C  0.64506353  0.12958188  0.27340107    -0.10300
C863        C  0.64512290  0.12940718  0.22979229    -0.11200
C864        C  0.64123488  0.11187879  0.20809713     0.20400
C865        C  0.63716813  0.09456518  0.23016647    -0.13200
C866        C  0.63710896  0.09473969  0.27374980    -0.11500
C867        C  0.64148811  0.11160888  0.16325353     0.01300
C868        C  0.64163729  0.11130391  0.12568935    -0.31500
C869        C  0.64131678  0.11229234  0.34031631     0.02700
C870        C  0.64147473  0.11211375  0.37788617    -0.33200
H871        H  0.64816052  0.14319218  0.28988135     0.13800
H872        H  0.64825770  0.14288674  0.21302735     0.13600
H873        H  0.63411504  0.08094067  0.21370002     0.13400
H874        H  0.63401820  0.08124498  0.29049723     0.12500
C875        C  0.64345901  0.01358447  0.99932062     0.18800
C876        C  0.62890002  0.00277706  0.02018942    -0.10300
C877        C  0.62949669  0.98216299  0.01993505    -0.11200
C878        C  0.64465336  0.97225845  0.99881615     0.20400
C879        C  0.65915948  0.98306285  0.97779199    -0.13200
C880        C  0.65856322  0.00367575  0.97804732    -0.11500
C881        C  0.64536543  0.95104485  0.99893644     0.01300
C882        C  0.64581971  0.93327642  0.99931198    -0.31500
C883        C  0.64298042  0.03480851  0.99992186     0.02700
C884        C  0.64266104  0.05258406  0.00044743    -0.33200
H885        H  0.61714606  0.01027550  0.03672534     0.13800
H886        H  0.61819585  0.97396087  0.03627687     0.13600
H887        H  0.67093970  0.97556450  0.96134068     0.13400
H888        H  0.66989157  0.01187668  0.96179039     0.12500
C889        C  0.26893228  0.62799546  0.50009178     0.18800
C890        C  0.25888667  0.64600011  0.49771256    -0.10300
C891        C  0.23827509  0.64635610  0.49758734    -0.11200
C892        C  0.22761285  0.62870857  0.49985938     0.20400
C893        C  0.23766071  0.61069771  0.50223224    -0.13200
C894        C  0.25827631  0.61034187  0.50235516    -0.11500
C895        C  0.20639567  0.62908728  0.49994983     0.01300
C896        C  0.18862538  0.62931916  0.50019546    -0.31500
C897        C  0.29014135  0.62764873  0.50013843     0.02700
C898        C  0.30791507  0.62739052  0.50012616    -0.33200
H899        H  0.26698089  0.65973578  0.49595301     0.13800
H900        H  0.23066414  0.66036483  0.49576106     0.13600
H901        H  0.22956964  0.59696205  0.50402028     0.13400
H902        H  0.26589520  0.59633671  0.50420637     0.12500
C903        C  0.26898680  0.62782875  0.00154227     0.18800
C904        C  0.25889913  0.64581518  0.00404433    -0.10300
C905        C  0.23828568  0.64613635  0.00372713    -0.11200
C906        C  0.22766526  0.62847244  0.00091649     0.20400
C907        C  0.23775883  0.61047613  0.99865175    -0.13200
C908        C  0.25837370  0.61015530  0.99897117    -0.11500
C909        C  0.20644503  0.62881664  0.00031461     0.01300
C910        C  0.18867237  0.62905742  0.99998071    -0.31500
C911        C  0.29019324  0.62752940  0.00098919     0.02700
C912        C  0.30796054  0.62729352  0.00003490    -0.33200
H913        H  0.26696089  0.65956737  0.00603533     0.13800
H914        H  0.23064110  0.66013322  0.00554159     0.13600
H915        H  0.22970418  0.59672596  0.99651686     0.13400
H916        H  0.26602705  0.59616538  0.99701669     0.12500
C917        C  0.12954641  0.62955689  0.79427863     0.18800
C918        C  0.11186140  0.63218675  0.77248160    -0.10300
C919        C  0.11184084  0.63216721  0.72887443    -0.11200
C920        C  0.12950763  0.62951912  0.70690464     0.20400
C921        C  0.14719350  0.62695267  0.72871264    -0.13200
C922        C  0.14721398  0.62697195  0.77230210    -0.11500
C923        C  0.12951921  0.62940574  0.66204624     0.01300
C924        C  0.12967314  0.62932056  0.62447147    -0.31500
C925        C  0.12957236  0.62945332  0.83913198     0.02700
C926        C  0.12965418  0.62936085  0.87670327    -0.33200
H927        H  0.09811819  0.63421331  0.78917027     0.13800
H928        H  0.09808256  0.63418214  0.71232334     0.13600
H929        H  0.16093775  0.62491106  0.71203592     0.13400
H930        H  0.16097289  0.62494171  0.78884311     0.12500
C931        C  0.13042345  0.62941811  0.20689006     0.18800
C932        C  0.14826899  0.62963035  0.22881211    -0.10300
C933        C  0.14822860  0.62963752  0.27241175    -0.11200
C934        C  0.13034238  0.62943319  0.29426424     0.20400
C935        C  0.11249744  0.62922564  0.27234056    -0.13200
C936        C  0.11253786  0.62921860  0.22874347    -0.11500
C937        C  0.13029569  0.62942943  0.33912079     0.01300
C938        C  0.13023012  0.62941641  0.37669479    -0.31500
C939        C  0.13045862  0.62939616  0.16203418     0.02700
C940        C  0.13043670  0.62937364  0.12446060    -0.33200
H941        H  0.16218243  0.62978619  0.21222405     0.13800
H942        H  0.16211142  0.62979902  0.28905417     0.13600
H943        H  0.09858348  0.62906670  0.28892673     0.13400
H944        H  0.09865450  0.62905414  0.21210242     0.12500
C945        C  0.75461838  0.62394242  0.50229581     0.18800
C946        C  0.76496261  0.64177985  0.50026226    -0.10300
C947        C  0.78556914  0.64175856  0.50021779    -0.11200
C948        C  0.79589607  0.62390049  0.50219599     0.20400
C949        C  0.78554261  0.60606877  0.50427936    -0.13200
C950        C  0.76493879  0.60609047  0.50432419    -0.11500
C951        C  0.81709005  0.62387328  0.50190930     0.01300
C952        C  0.83484599  0.62394914  0.50153369    -0.31500
C953        C  0.73343987  0.62394403  0.50226764     0.02700
C954        C  0.71568448  0.62393395  0.50221972    -0.33200
H955        H  0.75710931  0.65566352  0.49868365     0.13800
H956        H  0.79343607  0.65562868  0.49859026     0.13600
H957        H  0.79338682  0.59218066  0.50581052     0.13400
H958        H  0.75706594  0.59222107  0.50590363     0.12500
C959        C  0.03236154  0.62868229  0.50202717     0.18800
C960        C  0.02159105  0.64185668  0.47736627    -0.10300
C961        C  0.00097351  0.64126231  0.47746697    -0.11200
C962        C  0.99101295  0.62748584  0.50221653     0.20400
C963        C  0.00178149  0.61440512  0.52709870    -0.13200
C964        C  0.02239737  0.61499956  0.52699840    -0.11500
C965        C  0.96978659  0.62667791  0.50183502     0.01300
C966        C  0.95201425  0.62605692  0.50139171    -0.31500
C967        C  0.05359947  0.62907843  0.50145465     0.02700
C968        C  0.07138245  0.62925043  0.50097396    -0.33200
H969        H  0.02912246  0.65251127  0.45795823     0.13800
H970        H  0.99281335  0.65146758  0.45813831     0.13600
H971        H  0.99425223  0.60370622  0.54640130     0.13400
H972        H  0.03055761  0.60475005  0.54622204     0.12500
C973        C  0.79593621  0.62395349  0.99948605     0.18800
C974        C  0.78569660  0.64186772  0.99777558    -0.10300
C975        C  0.76509068  0.64199565  0.99794085    -0.11200
C976        C  0.75465485  0.62420844  0.99981033     0.20400
C977        C  0.76488846  0.60629405  0.00146216    -0.13200
C978        C  0.78549417  0.60616577  0.00129680    -0.11500
C979        C  0.73347215  0.62432782  0.00009201     0.01300
C980        C  0.71571401  0.62434726  0.00039193    -0.31500
C981        C  0.81713123  0.62384260  0.99955887     0.02700
C982        C  0.83488812  0.62389557  0.99975854    -0.33200
H983        H  0.79363205  0.65570454  0.99637519     0.13800
H984        H  0.75730856  0.65592626  0.99665300     0.13600
H985        H  0.75694663  0.59246070  0.00291257     0.13400
H986        H  0.79326986  0.59223435  0.00263506     0.12500
C987        C  0.89370651  0.62657381  0.79448247     0.18800
C988        C  0.87633841  0.63105023  0.77290877    -0.10300
C989        C  0.87620329  0.63106301  0.72931380    -0.11200
C990        C  0.89343742  0.62659839  0.70712810     0.20400
C991        C  0.91081669  0.62217181  0.72870014    -0.13200
C992        C  0.91095177  0.62215877  0.77229082    -0.11500
C993        C  0.89328014  0.62644520  0.66228791     0.01300
C994        C  0.89325092  0.62618254  0.62472526    -0.31500
C995        C  0.89379501  0.62638443  0.83932899     0.02700
C996        C  0.89379589  0.62610216  0.87689375    -0.33200
H997        H  0.86292011  0.63447693  0.78976616     0.13800
H998        H  0.86268385  0.63450112  0.71293784     0.13600
H999        H  0.92422233  0.61869381  0.71184298     0.13400
H1000       H  0.92445922  0.61866891  0.78866179     0.12500
C1001       C  0.89310764  0.62316965  0.29449517     0.18800
C1002       C  0.91089746  0.62430290  0.27242181    -0.10300
C1003       C  0.91082431  0.62428206  0.22881728    -0.11200
C1004       C  0.89296134  0.62312487  0.20707965     0.20400
C1005       C  0.87517015  0.62196935  0.22914672    -0.13200
C1006       C  0.87524325  0.62199009  0.27275844    -0.11500
C1007       C  0.89289676  0.62321948  0.16220158     0.01300
C1008       C  0.89293619  0.62343751  0.12461854    -0.31500
C1009       C  0.89318563  0.62332845  0.33937930     0.02700
C1010       C  0.89327310  0.62359061  0.37696769    -0.33200
H1011       H  0.92479513  0.62523408  0.28889923     0.13800
H1012       H  0.92466667  0.62519576  0.21207843     0.13600
H1013       H  0.86127112  0.62108359  0.21266356     0.13400
H1014       H  0.86139910  0.62112163  0.28950054     0.12500
C1015       C  0.99106095  0.62696533  0.00261260     0.18800
C1016       C  0.00202749  0.60995226  0.01120787    -0.10300
C1017       C  0.02264048  0.61068123  0.01127823    -0.11200
C1018       C  0.03240157  0.62842478  0.00275248     0.20400
C1019       C  0.02143278  0.64545260  0.99431225    -0.13200
C1020       C  0.00082099  0.64472379  0.99424306    -0.11500
C1021       C  0.05363420  0.62910371  0.00236532     0.01300
C1022       C  0.07141585  0.62943240  0.00188888    -0.31500
C1023       C  0.96983327  0.62620982  0.00224133     0.02700
C1024       C  0.95205693  0.62572922  0.00183755    -0.33200
H1025       H  0.99465518  0.59614011  0.01774733     0.13800
H1026       H  0.03095616  0.59741910  0.01785253     0.13600
H1027       H  0.02880441  0.65925491  0.98768059     0.13400
H1028       H  0.99250596  0.65797598  0.98757795     0.12500
C1029       C  0.37586131  0.21052120  0.50295853     0.18800
C1030       C  0.35833767  0.22139912  0.50094163    -0.10300
C1031       C  0.35896362  0.24200576  0.50058892    -0.11200
C1032       C  0.37711232  0.25181825  0.50224156     0.20400
C1033       C  0.39463278  0.24094521  0.50444116    -0.13200
C1034       C  0.39400705  0.22033890  0.50479811    -0.11500
C1035       C  0.37773829  0.27301189  0.50148837     0.01300
C1036       C  0.37811762  0.29077809  0.50084074    -0.31500
C1037       C  0.37526331  0.18931502  0.50282856     0.02700
C1038       C  0.37505421  0.17154733  0.50252833    -0.33200
H1039       H  0.34422773  0.21396236  0.49951494     0.13800
H1040       H  0.34532947  0.25027705  0.49890734     0.13600
H1041       H  0.40874430  0.24838638  0.50575482     0.13400
H1042       H  0.40764634  0.21207273  0.50637230     0.12500
C1043       C  0.37592534  0.21052505  0.00240876     0.18800
C1044       C  0.35826140  0.22120325  0.00093142    -0.10300
C1045       C  0.35864344  0.24182009  0.00116092    -0.11200
C1046       C  0.37668994  0.25182140  0.00285975     0.20400
C1047       C  0.39434127  0.24114351  0.00427777    -0.13200
C1048       C  0.39395986  0.22054023  0.00404749    -0.11500
C1049       C  0.37713004  0.27301140  0.00310189     0.01300
C1050       C  0.37758743  0.29077164  0.00324289    -0.31500
C1051       C  0.37559323  0.18931974  0.00230249     0.02700
C1052       C  0.37555307  0.17155429  0.00222165    -0.33200
H1053       H  0.34423436  0.21360558  0.99963619     0.13800
H1054       H  0.34490926  0.24994688  0.00002833     0.13600
H1055       H  0.40837089  0.24873968  0.00556955     0.13400
H1056       H  0.40770184  0.21242874  0.00517613     0.12500
C1057       C  0.37571209  0.11248074  0.79561232     0.18800
C1058       C  0.37774479  0.13027659  0.77399089    -0.10300
C1059       C  0.37771690  0.13037663  0.73039741    -0.11200
C1060       C  0.37565147  0.11267936  0.70821792     0.20400
C1061       C  0.37356143  0.09488138  0.72982632    -0.13200
C1062       C  0.37358928  0.09478123  0.77343808    -0.11500
C1063       C  0.37571205  0.11279060  0.66335331     0.01300
C1064       C  0.37575476  0.11289515  0.62577572    -0.31500
C1065       C  0.37585916  0.11241623  0.84048457     0.02700
C1066       C  0.37597649  0.11254743  0.87806833    -0.33200
H1067       H  0.37938169  0.14404756  0.79081727     0.13800
H1068       H  0.37933074  0.14422263  0.71401145     0.13600
H1069       H  0.37194235  0.08111195  0.71298633     0.13400
H1070       H  0.37199309  0.08093587  0.78983280     0.12500
C1071       C  0.37559263  0.11250465  0.29561343     0.18800
C1072       C  0.36663261  0.12799916  0.27396237    -0.10300
C1073       C  0.36667473  0.12809729  0.23038007    -0.11200
C1074       C  0.37568013  0.11270038  0.20826401     0.20400
C1075       C  0.38463027  0.09718919  0.22990624    -0.13200
C1076       C  0.38458836  0.09709115  0.27350731    -0.11500
C1077       C  0.37574809  0.11283986  0.16342227     0.01300
C1078       C  0.37579536  0.11296744  0.12585689    -0.31500
C1079       C  0.37558872  0.11248448  0.34045518     0.02700
C1080       C  0.37557007  0.11263258  0.37802067    -0.33200
H1081       H  0.35964153  0.13999016  0.29075600     0.13800
H1082       H  0.35971228  0.14016033  0.21395327     0.13600
H1083       H  0.39163474  0.08520951  0.21310165     0.13400
H1084       H  0.39156434  0.08503965  0.28994630     0.12500
C1085       C  0.38111136  0.73786733  0.50117054     0.18800
C1086       C  0.36330888  0.74832136  0.50043113    -0.10300
C1087       C  0.36343311  0.76893516  0.49998805    -0.11200
C1088       C  0.38136179  0.77917602  0.50028428     0.20400
C1089       C  0.39916321  0.76871977  0.50102118    -0.13200
C1090       C  0.39903872  0.74810603  0.50146705    -0.11500
C1091       C  0.38148739  0.80038403  0.50003585     0.01300
C1092       C  0.38149091  0.81814955  0.50006201    -0.31500
C1093       C  0.38098344  0.71666313  0.50137432     0.02700
C1094       C  0.38088405  0.69889032  0.50123223    -0.33200
H1095       H  0.34936608  0.74054489  0.50016555     0.13800
H1096       H  0.34958227  0.77687449  0.49943694     0.13600
H1097       H  0.41310731  0.77649173  0.50127339     0.13400
H1098       H  0.41288782  0.74016212  0.50200899     0.12500
C1099       C  0.37723321  0.01545328  0.50098195     0.18800
C1100       C  0.36438270  0.00475850  0.47531188    -0.10300
C1101       C  0.36502101  0.98415346  0.47501292    -0.11200
C1102       C  0.37851375  0.97417903  0.50038110     0.20400
C1103       C  0.39132994  0.98487398  0.52609883    -0.13200
C1104       C  0.39069202  0.00546962  0.52639774    -0.11500
C1105       C  0.37919915  0.95299603  0.50012509     0.01300
C1106       C  0.37973356  0.93524765  0.50015917    -0.31500
C1107       C  0.37668654  0.03664719  0.50115341     0.02700
C1108       C  0.37637291  0.05440594  0.50136292    -0.33200
H1109       H  0.35391643  0.01233636  0.45554296     0.13800
H1110       H  0.35503197  0.97601726  0.45503787     0.13600
H1111       H  0.40180365  0.97730030  0.54585862     0.13400
H1112       H  0.40068996  0.01359844  0.54636536     0.12500
C1113       C  0.38147976  0.73798917  0.00047910     0.18800
C1114       C  0.39944299  0.74807529  0.99741508    -0.10300
C1115       C  0.39972505  0.76869807  0.99708390    -0.11200
C1116       C  0.38204230  0.77930058  0.99982969     0.20400
C1117       C  0.36410466  0.76920502  0.00308704    -0.13200
C1118       C  0.36382306  0.74859990  0.00341778    -0.11500
C1119       C  0.38223140  0.80050880  0.99938173     0.01300
C1120       C  0.38203896  0.81827386  0.99932350    -0.31500
C1121       C  0.38111758  0.71678349  0.00008400     0.02700
C1122       C  0.38081601  0.69901269  0.99934371    -0.33200
H1123       H  0.41318441  0.74000800  0.99512653     0.13800
H1124       H  0.41368280  0.77635571  0.99460720     0.13600
H1125       H  0.35035177  0.77725711  0.00528002     0.13400
H1126       H  0.34985680  0.74094891  0.00579684     0.12500
C1127       C  0.38045575  0.87744078  0.70681874     0.18800
C1128       C  0.36846847  0.86420500  0.72868534    -0.10300
C1129       C  0.36848440  0.86420405  0.77228701    -0.11200
C1130       C  0.38048435  0.87744385  0.79422622     0.20400
C1131       C  0.39245020  0.89070486  0.77236973    -0.13200
C1132       C  0.39243447  0.89070575  0.72875868    -0.11500
C1133       C  0.38054203  0.87739159  0.83909665     0.01300
C1134       C  0.38059651  0.87729896  0.87667688    -0.31500
C1135       C  0.38052421  0.87732955  0.66193685     0.02700
C1136       C  0.38057677  0.87713003  0.62434820    -0.33200
H1137       H  0.35915191  0.85388283  0.71204661     0.13800
H1138       H  0.35917547  0.85388597  0.78886501     0.13600
H1139       H  0.40178735  0.90100556  0.78901692     0.13400
H1140       H  0.40176476  0.90100290  0.71217748     0.12500
C1141       C  0.38080853  0.87675183  0.29418118     0.18800
C1142       C  0.38424216  0.89426370  0.27231535    -0.10300
C1143       C  0.38427040  0.89420113  0.22872189    -0.11200
C1144       C  0.38086608  0.87662769  0.20683986     0.20400
C1145       C  0.37740175  0.85912501  0.22871272    -0.13200
C1146       C  0.37737356  0.85918759  0.27230018    -0.11500
C1147       C  0.38093436  0.87655381  0.16199936     0.01300
C1148       C  0.38096428  0.87652685  0.12443343    -0.31500
C1149       C  0.38083353  0.87678418  0.33901334     0.02700
C1150       C  0.38084059  0.87673816  0.37657233    -0.33200
H1151       H  0.38690658  0.90792758  0.28893892     0.13800
H1152       H  0.38695427  0.90781872  0.21210673     0.13600
H1153       H  0.37474299  0.84545864  0.21209496     0.13400
H1154       H  0.37469556  0.84556829  0.28891380     0.12500
C1155       C  0.37725121  0.01551802  0.00126133     0.18800
C1156       C  0.36170129  0.00476895  0.01876057    -0.10300
C1157       C  0.36231165  0.98417249  0.01887450    -0.11200
C1158       C  0.37847534  0.97426119  0.00149301     0.20400
C1159       C  0.39401704  0.98500799  0.98395667    -0.13200
C1160       C  0.39340690  0.00560441  0.98384338    -0.11500
C1161       C  0.37910283  0.95308665  0.00161580     0.01300
C1162       C  0.37957579  0.93534193  0.00161198    -0.31500
C1163       C  0.37668319  0.03669837  0.00137102     0.02700
C1164       C  0.37634407  0.05444872  0.00159881    -0.33200
H1165       H  0.34914799  0.01229967  0.03232542     0.13800
H1166       H  0.35021695  0.97599096  0.03250044     0.13600
H1167       H  0.40657883  0.97747663  0.97042731     0.13400
H1168       H  0.40551106  0.01378508  0.97025296     0.12500
loop_ 
_geom_bond_atom_site_label_1 
_geom_bond_atom_site_label_2 
_geom_bond_distance 
_geom_bond_site_symmetry_2 
_ccdc_geom_bond_type 
O1            V9   1.900       .  S
O1           C11   1.263   1_554  A
O2            V9   1.899       .  S
O2           C12   1.262       .  A
O3            V9   1.900   1_556  S
O3           C13   1.263       .  A
O4            V9   1.899       .  S
O4           C14   1.262       .  A
O5           V10   1.900       .  S
O5           C14   1.263       .  A
O6           V10   1.900   1_556  S
O6           C13   1.263       .  A
O7           V10   1.899       .  S
O7           C12   1.262       .  A
O8           V10   1.899   1_556  S
O8           C11   1.262       .  A
V9           V10   2.091       .  T
C11        C1120   1.434       .  S
C12        C1162   1.432       .  S
C13        C1134   1.434       .  S
C14        C1148   1.434       .  S
O15          V23   1.899       .  S
O15          C25   1.262       .  A
O16          V23   1.898       .  S
O16          C26   1.262       .  A
O17          V23   1.899       .  S
O17          C27   1.262       .  A
O18          V23   1.900       .  S
O18          C28   1.263       .  A
O19          V24   1.900       .  S
O19          C28   1.263       .  A
O20          V24   1.899       .  S
O20          C27   1.262       .  A
O21          V24   1.900       .  S
O21          C26   1.263       .  A
O22          V24   1.901       .  S
O22          C25   1.263       .  A
V23          V24   2.091       .  T
C25        C1092   1.434       .  S
C26        C1106   1.433       .  S
C27        C1150   1.433       .  S
C28        C1136   1.435       .  S
O29          V37   1.899       .  S
O29          C39   1.263       .  A
O30          V37   1.898       .  S
O30          C40   1.262       .  A
O31          V37   1.901   1_556  S
O31          C41   1.263       .  A
O32          V37   1.900       .  S
O32          C42   1.263       .  A
O33          V38   1.899       .  S
O33          C42   1.262       .  A
O34          V38   1.900   1_556  S
O34          C41   1.263       .  A
O35          V38   1.899       .  S
O35          C40   1.262       .  A
O36          V38   1.900       .  S
O36          C39   1.263       .  A
V37          V38   2.091       .  T
C39        C1052   1.434       .  S
C40        C1164   1.433       .  S
C41        C1066   1.435       .  S
C42        C1078   1.434       .  S
O43          V51   1.899       .  S
O43          C53   1.262       .  A
O44          V51   1.899       .  S
O44          C54   1.262       .  A
O45          V51   1.899       .  S
O45          C55   1.262       .  A
O46          V51   1.900       .  S
O46          C56   1.263       .  A
O47          V52   1.900       .  S
O47          C56   1.263       .  A
O48          V52   1.900       .  S
O48          C55   1.263       .  A
O49          V52   1.900       .  S
O49          C54   1.263       .  A
O50          V52   1.901       .  S
O50          C53   1.263       .  A
V51          V52   2.091       .  T
C53        C1038   1.434       .  S
C54        C1108   1.434       .  S
C55        C1080   1.434       .  S
C56        C1064   1.434       .  S
O57          V65   1.899       .  S
O57          C67   1.262       .  A
O58          V65   1.901       .  S
O58          C68   1.263       .  A
O59          V65   1.900   1_556  S
O59          C69   1.263       .  A
O60          V65   1.900       .  S
O60          C70   1.263       .  A
O61          V66   1.900   1_554  S
O61          C70   1.263       .  A
O62          V66   1.900       .  S
O62          C69   1.263       .  A
O63          V66   1.901   1_554  S
O63          C68   1.263       .  A
O64          V66   1.900       .  S
O64          C67   1.263   1_556  A
V65          V66   2.091   1_554  T
C67         C982   1.434   1_554  S
C68        C1024   1.437       .  S
C69         C996   1.434       .  S
C70        C1008   1.435       .  S
O71          V79   1.899       .  S
O71          C81   1.262       .  A
O72          V79   1.900       .  S
O72          C82   1.263       .  A
O73          V79   1.900       .  S
O73          C83   1.263       .  A
O74          V79   1.900       .  S
O74          C84   1.263       .  A
O75          V80   1.899       .  S
O75          C84   1.262       .  A
O76          V80   1.900       .  S
O76          C83   1.263       .  A
O77          V80   1.902       .  S
O77          C82   1.263       .  A
O78          V80   1.901       .  S
O78          C81   1.263       .  A
V79          V80   2.091       .  T
C81         C952   1.434       .  S
C82         C966   1.437       .  S
C83        C1010   1.435       .  S
C84         C994   1.434       .  S
O85          V93   1.900       .  S
O85          C95   1.263   1_554  A
O86          V93   1.900       .  S
O86          C96   1.263       .  A
O87          V93   1.900   1_556  S
O87          C97   1.263       .  A
O88          V93   1.900       .  S
O88          C98   1.263       .  A
O89          V94   1.899       .  S
O89          C98   1.262       .  A
O90          V94   1.899   1_556  S
O90          C97   1.262       .  A
O91          V94   1.902       .  S
O91          C96   1.263       .  A
O92          V94   1.902       .  S
O92          C95   1.263   1_554  A
V93          V94   2.091       .  T
C95         C910   1.436       .  S
C96        C1022   1.437       .  S
C97         C926   1.434       .  S
C98         C940   1.434       .  S
O99         V107   1.900       .  S
O99         C109   1.263       .  A
O100        V107   1.901       .  S
O100        C110   1.263       .  A
O101        V107   1.900       .  S
O101        C111   1.263       .  A
O102        V107   1.900       .  S
O102        C112   1.263       .  A
O103        V108   1.900       .  S
O103        C112   1.262       .  A
O104        V108   1.900       .  S
O104        C111   1.263       .  A
O105        V108   1.902       .  S
O105        C110   1.263       .  A
O106        V108   1.901       .  S
O106        C109   1.263       .  A
V107        V108   2.091       .  T
C109        C896   1.435       .  S
C110        C968   1.437       .  S
C111        C938   1.434       .  S
C112        C924   1.434       .  S
O113        V121   1.900       .  S
O113        C123   1.263       .  A
O114        V121   1.901       .  S
O114        C124   1.263       .  A
O115        V121   1.900   1_556  S
O115        C125   1.263       .  A
O116        V121   1.900       .  S
O116        C126   1.263       .  A
O117        V122   1.899       .  S
O117        C126   1.262       .  A
O118        V122   1.900   1_556  S
O118        C125   1.262       .  A
O119        V122   1.901       .  S
O119        C124   1.263       .  A
O120        V122   1.901       .  S
O120        C123   1.263       .  A
V121        V122   2.091       .  T
C123        C840   1.435       .  S
C124        C884   1.436       .  S
C125        C854   1.434       .  S
C126        C868   1.434       .  S
O127        V135   1.899       .  S
O127        C137   1.262       .  A
O128        V135   1.900       .  S
O128        C138   1.263       .  A
O129        V135   1.901       .  S
O129        C139   1.263       .  A
O130        V135   1.901       .  S
O130        C140   1.263       .  A
O131        V136   1.899       .  S
O131        C140   1.262       .  A
O132        V136   1.899       .  S
O132        C139   1.262       .  A
O133        V136   1.901       .  S
O133        C138   1.263       .  A
O134        V136   1.900       .  S
O134        C137   1.263       .  A
V135        V136   2.091       .  T
C137        C814   1.434       .  S
C138        C826   1.435       .  S
C139        C870   1.434       .  S
C140        C856   1.434       .  S
O141        V149   1.899       .  S
O141        C151   1.262       .  A
O142        V149   1.899   1_556  S
O142        C152   1.262       .  A
O143        V149   1.901   1_556  S
O143        C153   1.263       .  A
O144        V149   1.900       .  S
O144        C154   1.263       .  A
O145        V150   1.899       .  S
O145        C154   1.262       .  A
O146        V150   1.900   1_556  S
O146        C153   1.263       .  A
O147        V150   1.901       .  S
O147        C152   1.263   1_554  A
O148        V150   1.901       .  S
O148        C151   1.263       .  A
V149        V150   2.091       .  T
C151        C770   1.435       .  S
C152        C882   1.435       .  S
C153        C784   1.435       .  S
C154        C798   1.434       .  S
O155        V163   1.900       .  S
O155        C165   1.263       .  A
O156        V163   1.900       .  S
O156        C166   1.263       .  A
O157        V163   1.900       .  S
O157        C167   1.263       .  A
O158        V163   1.901       .  S
O158        C168   1.263       .  A
O159        V164   1.899       .  S
O159        C168   1.262       .  A
O160        V164   1.899       .  S
O160        C167   1.262       .  A
O161        V164   1.901       .  S
O161        C166   1.263       .  A
O162        V164   1.900       .  S
O162        C165   1.263       .  A
V163        V164   2.091       .  T
C165        C756   1.434       .  S
C166        C828   1.435       .  S
C167        C800   1.434       .  S
C168        C786   1.435       .  S
N169        C174   1.355       .  A
N169        C173   1.355       .  A
N169        H201   1.035       .  S
N170        C177   1.351       .  A
N170        C178   1.351   1_554  A
N171        C176   1.355       .  A
N171        C175   1.355       .  A
N171        H202   1.035       .  S
N172        C179   1.351       .  A
N172        C180   1.351   1_554  A
C173        C181   1.388   1_554  A
C173        C189   1.417       .  A
C174        C190   1.417       .  A
C174        C182   1.388   1_554  A
C175        C183   1.388   1_556  A
C175        C192   1.418       .  A
C176        C191   1.418       .  A
C176        C184   1.388   1_556  A
C177        C189   1.414       .  A
C177        C185   1.387       .  A
C178        C192   1.415       .  A
C178        C186   1.387   1_556  A
C179        C187   1.387       .  A
C179        C190   1.414       .  A
C180        C188   1.388       .  A
C180        C191   1.414       .  A
C181        C182   1.372       .  A
C181        H193   1.082       .  S
C182        H194   1.082       .  S
C183        C184   1.373       .  A
C183        H195   1.082       .  S
C184        H196   1.082       .  S
C185        C186   1.371       .  A
C185        H197   1.082       .  S
C186        H198   1.082   1_554  S
C187        C188   1.371   1_554  A
C187        H199   1.082       .  S
C188        H200   1.082       .  S
C189        C714   1.452       .  S
C190       C1050   1.450       .  S
C191        C728   1.450       .  S
C192        C744   1.452       .  S
N203        C208   1.355       .  A
N203        C207   1.355       .  A
N203        H235   1.035       .  S
N204        C211   1.351       .  A
N204        C212   1.351       .  A
N205        C210   1.355       .  A
N205        C209   1.355       .  A
N205        H236   1.035       .  S
N206        C213   1.351       .  A
N206        C214   1.351       .  A
C207        C215   1.388       .  A
C207        C223   1.417       .  A
C208        C224   1.418       .  A
C208        C216   1.388       .  A
C209        C217   1.388       .  A
C209        C226   1.418       .  A
C210        C225   1.418       .  A
C210        C218   1.388       .  A
C211        C223   1.414       .  A
C211        C219   1.387       .  A
C212        C226   1.414       .  A
C212        C220   1.388       .  A
C213        C221   1.387       .  A
C213        C224   1.414       .  A
C214        C222   1.387       .  A
C214        C225   1.414       .  A
C215        C216   1.373       .  A
C215        H227   1.082       .  S
C216        H228   1.082       .  S
C217        C218   1.373       .  A
C217        H229   1.082       .  S
C218        H230   1.082       .  S
C219        C220   1.371       .  A
C219        H231   1.082       .  S
C220        H232   1.082       .  S
C221        C222   1.371       .  A
C221        H233   1.082       .  S
C222        H234   1.082       .  S
C223       C1036   1.451       .  S
C224        C674   1.452       .  S
C225        C700   1.452       .  S
C226        C688   1.450       .  S
N237        C242   1.356       .  A
N237        C241   1.355       .  A
N237        H269   1.035       .  S
N238        C245   1.351   1_554  A
N238        C246   1.352       .  A
N239        C244   1.355       .  A
N239        C243   1.355       .  A
N239        H270   1.035       .  S
N240        C247   1.351   1_554  A
N240        C248   1.351       .  A
C241        C249   1.388   1_556  A
C241        C257   1.418       .  A
C242        C258   1.418       .  A
C242        C250   1.388   1_556  A
C243        C251   1.388   1_554  A
C243        C260   1.418       .  A
C244        C259   1.417       .  A
C244        C252   1.388   1_554  A
C245        C257   1.415       .  A
C245        C253   1.388       .  A
C246        C260   1.414       .  A
C246        C254   1.387       .  A
C247        C255   1.387       .  A
C247        C258   1.414       .  A
C248        C256   1.387       .  A
C248        C259   1.414       .  A
C249        C250   1.373       .  A
C249        H261   1.082       .  S
C250        H262   1.082       .  S
C251        C252   1.373       .  A
C251        H263   1.082       .  S
C252        H264   1.082       .  S
C253        C254   1.371   1_556  A
C253        H265   1.082       .  S
C254        H266   1.082       .  S
C255        C256   1.371   1_556  A
C255        H267   1.082       .  S
C256        H268   1.082       .  S
C257        C912   1.452   1_556  S
C258       C1122   1.451       .  S
C259        C658   1.450       .  S
C260        C742   1.453       .  S
N271        C276   1.355       .  A
N271        C275   1.355       .  A
N271        H303   1.035       .  S
N272        C279   1.351       .  A
N272        C280   1.351       .  A
N273        C278   1.355       .  A
N273        C277   1.355       .  A
N273        H304   1.034       .  S
N274        C281   1.351       .  A
N274        C282   1.351       .  A
C275        C283   1.388       .  A
C275        C291   1.418       .  A
C276        C292   1.418       .  A
C276        C284   1.388       .  A
C277        C285   1.388       .  A
C277        C294   1.418       .  A
C278        C293   1.418       .  A
C278        C286   1.388       .  A
C279        C291   1.414       .  A
C279        C287   1.387       .  A
C280        C294   1.414       .  A
C280        C288   1.387       .  A
C281        C289   1.387       .  A
C281        C292   1.414       .  A
C282        C290   1.388       .  A
C282        C293   1.414       .  A
C283        C284   1.373       .  A
C283        H295   1.082       .  S
C284        H296   1.082       .  S
C285        C286   1.373       .  A
C285        H297   1.082       .  S
C286        H298   1.082       .  S
C287        C288   1.371       .  A
C287        H299   1.082       .  S
C288        H300   1.082       .  S
C289        C290   1.371       .  A
C289        H301   1.082       .  S
C290        H302   1.082       .  S
C291        C898   1.452       .  S
C292       C1094   1.451       .  S
C293        C644   1.451       .  S
C294        C702   1.451       .  S
N305        C310   1.355       .  A
N305        C309   1.355       .  A
N305        H337   1.035       .  S
N306        C313   1.351       .  A
N306        C314   1.351   1_554  A
N307        C312   1.355       .  A
N307        C311   1.354       .  A
N307        H338   1.035       .  S
N308        C315   1.351       .  A
N308        C316   1.351   1_554  A
C309        C317   1.388   1_554  A
C309        C325   1.417       .  A
C310        C326   1.417       .  A
C310        C318   1.388   1_554  A
C311        C319   1.388   1_556  A
C311        C328   1.417       .  A
C312        C327   1.417       .  A
C312        C320   1.388   1_556  A
C313        C325   1.414       .  A
C313        C321   1.387       .  A
C314        C328   1.414       .  A
C314        C322   1.387       .  A
C315        C323   1.387       .  A
C315        C326   1.414       .  A
C316        C324   1.387       .  A
C316        C327   1.414       .  A
C317        C318   1.372       .  A
C317        H329   1.082       .  S
C318        H330   1.082       .  S
C319        C320   1.373       .  A
C319        H331   1.082       .  S
C320        H332   1.082       .  S
C321        C322   1.371   1_554  A
C321        H333   1.082       .  S
C322        H334   1.082       .  S
C323        C324   1.372   1_554  A
C323        H335   1.082       .  S
C324        H336   1.082       .  S
C325        C842   1.451       .  S
C326        C618   1.451       .  S
C327        C630   1.450       .  S
C328        C730   1.450       .  S
N339        C344   1.355       .  A
N339        C343   1.355       .  A
N339        H371   1.035       .  S
N340        C347   1.351       .  A
N340        C348   1.351       .  A
N341        C346   1.355       .  A
N341        C345   1.355       .  A
N341        H372   1.035       .  S
N342        C349   1.351       .  A
N342        C350   1.351       .  A
C343        C351   1.388       .  A
C343        C359   1.418       .  A
C344        C360   1.418       .  A
C344        C352   1.388       .  A
C345        C353   1.388       .  A
C345        C362   1.417       .  A
C346        C361   1.417       .  A
C346        C354   1.388       .  A
C347        C359   1.414       .  A
C347        C355   1.387       .  A
C348        C362   1.414       .  A
C348        C356   1.387       .  A
C349        C357   1.387       .  A
C349        C360   1.415       .  A
C350        C358   1.387       .  A
C350        C361   1.414       .  A
C351        C352   1.373       .  A
C351        H363   1.082       .  S
C352        H364   1.082       .  S
C353        C354   1.373       .  A
C353        H365   1.082       .  S
C354        H366   1.082       .  S
C355        C356   1.371       .  A
C355        H367   1.082       .  S
C356        H368   1.082       .  S
C357        C358   1.371       .  A
C357        H369   1.082       .  S
C358        H370   1.082       .  S
C359        C812   1.451       .  S
C360        C588   1.452       .  S
C361        C602   1.451       .  S
C362        C686   1.450       .  S
N373        C378   1.355       .  A
N373        C377   1.355       .  A
N373        H405   1.035       .  S
N374        C381   1.351   1_556  A
N374        C382   1.351       .  A
N375        C380   1.355       .  A
N375        C379   1.355       .  A
N375        H406   1.035       .  S
N376        C383   1.351   1_556  A
N376        C384   1.351       .  A
C377        C385   1.388   1_554  A
C377        C393   1.417       .  A
C378        C394   1.417       .  A
C378        C386   1.388   1_554  A
C379        C387   1.388   1_556  A
C379        C396   1.417       .  A
C380        C395   1.417       .  A
C380        C388   1.388   1_556  A
C381        C393   1.413       .  A
C381        C389   1.387   1_554  A
C382        C396   1.413       .  A
C382        C390   1.387       .  A
C383        C391   1.387       .  A
C383        C394   1.414       .  A
C384        C392   1.387       .  A
C384        C395   1.414       .  A
C385        C386   1.372       .  A
C385        H397   1.082       .  S
C386        H398   1.082       .  S
C387        C388   1.372       .  A
C387        H399   1.082       .  S
C388        H400   1.082       .  S
C389        C390   1.371       .  A
C389        H401   1.082   1_556  S
C390        H402   1.082       .  S
C391        C392   1.371   1_554  A
C391        H403   1.082       .  S
C392        H404   1.082       .  S
C393        C980   1.450       .  S
C394        C772   1.450       .  S
C395        C660   1.451       .  S
C396        C632   1.450       .  S
N407        C412   1.355       .  A
N407        C411   1.355       .  A
N407        H439   1.035       .  S
N408        C415   1.351       .  A
N408        C416   1.351       .  A
N409        C414   1.355       .  A
N409        C413   1.355       .  A
N409        H440   1.035       .  S
N410        C417   1.351       .  A
N410        C418   1.351       .  A
C411        C419   1.388       .  A
C411        C427   1.417       .  A
C412        C428   1.417       .  A
C412        C420   1.388       .  A
C413        C421   1.388       .  A
C413        C430   1.417       .  A
C414        C429   1.417       .  A
C414        C422   1.388       .  A
C415        C427   1.413       .  A
C415        C423   1.387       .  A
C416        C430   1.414       .  A
C416        C424   1.387       .  A
C417        C425   1.387       .  A
C417        C428   1.414       .  A
C418        C426   1.387       .  A
C418        C429   1.414       .  A
C419        C420   1.372       .  A
C419        H431   1.082       .  S
C420        H432   1.082       .  S
C421        C422   1.372       .  A
C421        H433   1.082       .  S
C422        H434   1.082       .  S
C423        C424   1.371       .  A
C423        H435   1.082       .  S
C424        H436   1.082       .  S
C425        C426   1.371       .  A
C425        H437   1.082       .  S
C426        H438   1.082       .  S
C427        C954   1.450       .  S
C428        C758   1.450       .  S
C429        C646   1.450       .  S
C430        C604   1.451       .  S
O441        V449   1.899   1_556  S
O441        C451   1.262       .  A
O442        V449   1.900       .  S
O442        C452   1.262       .  A
O443        V449   1.900   1_556  S
O443        C453   1.263       .  A
O444        V449   1.900       .  S
O444        C454   1.263       .  A
O445        V450   1.900       .  S
O445        C454   1.263       .  A
O446        V450   1.900   1_556  S
O446        C453   1.263       .  A
O447        V450   1.902       .  S
O447        C452   1.263       .  A
O448        V450   1.902   1_556  S
O448        C451   1.263       .  A
V449        V450   2.091       .  T
C451        C716   1.435       .  S
C452        C574   1.436       .  S
C453        C546   1.434       .  S
C454        C562   1.435       .  S
O455        V463   1.899       .  S
O455        C465   1.262       .  A
O456        V463   1.899       .  S
O456        C466   1.262       .  A
O457        V463   1.900       .  S
O457        C467   1.263       .  A
O458        V463   1.899       .  S
O458        C468   1.263       .  A
O459        V464   1.900       .  S
O459        C468   1.263       .  A
O460        V464   1.900       .  S
O460        C467   1.263       .  A
O461        V464   1.901       .  S
O461        C466   1.263       .  A
O462        V464   1.902       .  S
O462        C465   1.263       .  A
V463        V464   2.091       .  T
C465        C672   1.436       .  S
C466        C532   1.435       .  S
C467        C560   1.434       .  S
C468        C548   1.434       .  S
O469        V477   1.902       .  S
O469        C479   1.263       .  A
O470        V477   1.902       .  S
O470        C480   1.263       .  A
O471        V477   1.900   1_556  S
O471        C481   1.263       .  A
O472        V477   1.899       .  S
O472        C482   1.262       .  A
O473        V478   1.900       .  S
O473        C482   1.263       .  A
O474        V478   1.900   1_556  S
O474        C481   1.263       .  A
O475        V478   1.900       .  S
O475        C480   1.262       .  A
O476        V478   1.900       .  S
O476        C479   1.262       .  A
V477        V478   2.091       .  T
C479        C616   1.435       .  S
C480        C576   1.436       .  S
C481        C506   1.434       .  S
C482        C518   1.434       .  S
O483        V491   1.901       .  S
O483        C493   1.263       .  A
O484        V491   1.900       .  S
O484        C494   1.263       .  A
O485        V491   1.901       .  S
O485        C495   1.263       .  A
O486        V491   1.900       .  S
O486        C496   1.263       .  A
O487        V492   1.899       .  S
O487        C496   1.262       .  A
O488        V492   1.900       .  S
O488        C495   1.263       .  A
O489        V492   1.900       .  S
O489        C494   1.263       .  A
O490        V492   1.902       .  S
O490        C493   1.263       .  A
V491        V492   2.091       .  T
C493        C590   1.437       .  S
C494        C534   1.434       .  S
C495        C520   1.435       .  S
C496        C504   1.434       .  S
C497        C505   1.439       .  S
C497        C498   1.401       .  A
C497        C502   1.401       .  A
C498        C499   1.399       .  A
C498        H507   1.083       .  S
C499        C500   1.401       .  A
C499        H508   1.083       .  S
C500        C503   1.439       .  S
C500        C501   1.401       .  A
C501        C502   1.399       .  A
C501        H509   1.083       .  S
C502        H510   1.083       .  S
C503        C504   1.205       .  T
C505        C506   1.206       .  T
C511        C519   1.440       .  S
C511        C512   1.401       .  A
C511        C516   1.402       .  A
C512        C513   1.398       .  A
C512        H521   1.083       .  S
C513        C514   1.401       .  A
C513        H522   1.083       .  S
C514        C517   1.439       .  S
C514        C515   1.402       .  A
C515        C516   1.400       .  A
C515        H523   1.083       .  S
C516        H524   1.083       .  S
C517        C518   1.206       .  T
C519        C520   1.206       .  T
C525        C533   1.439       .  S
C525        C526   1.401       .  A
C525        C530   1.401   1_655  A
C526        C527   1.399   1_655  A
C526        H535   1.083       .  S
C527        C528   1.401       .  A
C527        H536   1.083       .  S
C528        C531   1.440       .  S
C528        C529   1.401       .  A
C529        C530   1.399       .  A
C529        H537   1.083       .  S
C530        H538   1.083   1_455  S
C531        C532   1.206       .  T
C533        C534   1.206       .  T
C539        C547   1.439       .  S
C539        C540   1.401       .  A
C539        C544   1.401       .  A
C540        C541   1.399       .  A
C540        H549   1.083       .  S
C541        C542   1.401       .  A
C541        H550   1.083       .  S
C542        C545   1.439       .  S
C542        C543   1.401       .  A
C543        C544   1.399       .  A
C543        H551   1.083       .  S
C544        H552   1.083       .  S
C545        C546   1.205       .  T
C547        C548   1.205       .  T
C553        C561   1.440       .  S
C553        C554   1.401       .  A
C553        C558   1.401       .  A
C554        C555   1.399       .  A
C554        H563   1.083       .  S
C555        C556   1.401       .  A
C555        H564   1.083       .  S
C556        C559   1.439       .  S
C556        C557   1.401       .  A
C557        C558   1.399       .  A
C557        H565   1.083       .  S
C558        H566   1.083       .  S
C559        C560   1.206       .  T
C561        C562   1.206       .  T
C567        C575   1.441       .  S
C567        C568   1.401       .  A
C567        C572   1.402   1_654  A
C568        C569   1.399   1_655  A
C568        H577   1.083       .  S
C569        C570   1.401       .  A
C569        H578   1.083       .  S
C570        C573   1.441       .  S
C570        C571   1.402   1_554  A
C571        C572   1.400       .  A
C571        H579   1.083       .  S
C572        H580   1.083   1_455  S
C573        C574   1.206       .  T
C575        C576   1.206       .  T
C581        C589   1.441       .  S
C581        C582   1.402       .  A
C581        C586   1.402       .  A
C582        C583   1.400       .  A
C582        H591   1.083       .  S
C583        C584   1.401       .  A
C583        H592   1.084       .  S
C584        C587   1.440       .  S
C584        C585   1.401       .  A
C585        C586   1.399       .  A
C585        H593   1.084       .  S
C586        H594   1.083       .  S
C587        C588   1.207       .  T
C589        C590   1.207       .  T
C595        C603   1.439       .  S
C595        C596   1.401       .  A
C595        C600   1.401       .  A
C596        C597   1.399       .  A
C596        H605   1.084       .  S
C597        C598   1.401       .  A
C597        H606   1.084       .  S
C598        C601   1.439       .  S
C598        C599   1.401       .  A
C599        C600   1.399       .  A
C599        H607   1.084       .  S
C600        H608   1.084       .  S
C601        C602   1.206       .  T
C603        C604   1.206       .  T
C609        C617   1.439       .  S
C609        C610   1.402   1_554  A
C609        C614   1.401       .  A
C610        C611   1.400   1_556  A
C610        H619   1.084       .  S
C611        C612   1.402       .  A
C611        H620   1.083   1_554  S
C612        C615   1.440       .  S
C612        C613   1.401       .  A
C613        C614   1.398       .  A
C613        H621   1.083       .  S
C614        H622   1.084       .  S
C615        C616   1.206       .  T
C617        C618   1.206       .  T
C623        C631   1.437       .  S
C623        C624   1.401   1_556  A
C623        C628   1.401       .  A
C624        C625   1.399       .  A
C624        H633   1.084       .  S
C625        C626   1.401       .  A
C625        H634   1.084       .  S
C626        C629   1.438       .  S
C626        C627   1.401   1_554  A
C627        C628   1.398       .  A
C627        H635   1.084       .  S
C628        H636   1.084       .  S
C629        C630   1.205   1_554  T
C631        C632   1.205       .  T
C637        C645   1.438       .  S
C637        C638   1.401       .  A
C637        C642   1.401       .  A
C638        C639   1.398       .  A
C638        H647   1.084       .  S
C639        C640   1.401       .  A
C639        H648   1.084       .  S
C640        C643   1.438       .  S
C640        C641   1.401       .  A
C641        C642   1.399       .  A
C641        H649   1.084       .  S
C642        H650   1.084       .  S
C643        C644   1.206       .  T
C645        C646   1.206       .  T
C651        C659   1.438       .  S
C651        C652   1.401       .  A
C651        C656   1.401   1_556  A
C652        C653   1.399   1_556  A
C652        H661   1.084       .  S
C653        C654   1.401       .  A
C653        H662   1.084       .  S
C654        C657   1.438       .  S
C654        C655   1.401       .  A
C655        C656   1.399       .  A
C655        H663   1.084       .  S
C656        H664   1.084       .  S
C657        C658   1.206       .  T
C659        C660   1.206       .  T
C665        C673   1.440       .  S
C665        C666   1.401       .  A
C665        C670   1.401       .  A
C666        C667   1.399       .  A
C666        H675   1.084       .  S
C667        C668   1.401       .  A
C667        H676   1.083       .  S
C668        C671   1.440       .  S
C668        C669   1.402       .  A
C669        C670   1.399       .  A
C669        H677   1.083       .  S
C670        H678   1.084       .  S
C671        C672   1.206       .  T
C673        C674   1.206       .  T
C679        C687   1.438       .  S
C679        C680   1.401       .  A
C679        C684   1.401       .  A
C680        C681   1.399       .  A
C680        H689   1.084       .  S
C681        C682   1.401       .  A
C681        H690   1.084       .  S
C682        C685   1.438       .  S
C682        C683   1.401       .  A
C683        C684   1.398       .  A
C683        H691   1.084       .  S
C684        H692   1.084       .  S
C685        C686   1.205       .  T
C687        C688   1.205       .  T
C693        C701   1.439       .  S
C693        C694   1.401       .  A
C693        C698   1.401       .  A
C694        C695   1.399       .  A
C694        H703   1.084       .  S
C695        C696   1.401       .  A
C695        H704   1.084       .  S
C696        C699   1.440       .  S
C696        C697   1.401       .  A
C697        C698   1.399       .  A
C697        H705   1.084       .  S
C698        H706   1.084       .  S
C699        C700   1.206       .  T
C701        C702   1.206       .  T
C707        C715   1.440       .  S
C707        C708   1.401       .  A
C707        C712   1.402   1_554  A
C708        C709   1.399       .  A
C708        H717   1.083       .  S
C709        C710   1.401       .  A
C709        H718   1.084       .  S
C710        C713   1.440       .  S
C710        C711   1.401   1_554  A
C711        C712   1.400       .  A
C711        H719   1.084       .  S
C712        H720   1.083       .  S
C713        C714   1.206       .  T
C715        C716   1.206   1_554  T
C721        C729   1.437       .  S
C721        C722   1.401   1_556  A
C721        C726   1.401       .  A
C722        C723   1.399       .  A
C722        H731   1.084       .  S
C723        C724   1.401   1_554  A
C723        H732   1.084       .  S
C724        C727   1.438       .  S
C724        C725   1.401       .  A
C725        C726   1.398       .  A
C725        H733   1.084       .  S
C726        H734   1.084       .  S
C727        C728   1.205       .  T
C729        C730   1.205       .  T
C735        C743   1.440       .  S
C735        C736   1.401   1_556  A
C735        C740   1.401       .  A
C736        C737   1.399       .  A
C736        H745   1.084       .  S
C737        C738   1.401       .  A
C737        H746   1.084       .  S
C738        C741   1.441       .  S
C738        C739   1.402   1_554  A
C739        C740   1.400       .  A
C739        H747   1.084       .  S
C740        H748   1.084       .  S
C741        C742   1.207       .  T
C743        C744   1.207       .  T
C749        C757   1.438       .  S
C749        C750   1.401       .  A
C749        C754   1.401       .  A
C750        C751   1.399       .  A
C750        H759   1.084       .  S
C751        C752   1.401       .  A
C751        H760   1.083       .  S
C752        C755   1.439       .  S
C752        C753   1.401       .  A
C753        C754   1.398       .  A
C753        H761   1.083       .  S
C754        H762   1.084       .  S
C755        C756   1.206       .  T
C757        C758   1.206       .  T
C763        C771   1.438       .  S
C763        C764   1.401       .  A
C763        C768   1.401       .  A
C764        C765   1.399       .  A
C764        H773   1.084       .  S
C765        C766   1.401       .  A
C765        H774   1.083       .  S
C766        C769   1.440       .  S
C766        C767   1.401       .  A
C767        C768   1.399       .  A
C767        H775   1.083       .  S
C768        H776   1.084       .  S
C769        C770   1.206       .  T
C771        C772   1.206       .  T
C777        C785   1.440       .  S
C777        C778   1.401       .  A
C777        C782   1.401       .  A
C778        C779   1.399       .  A
C778        H787   1.083       .  S
C779        C780   1.401       .  A
C779        H788   1.083       .  S
C780        C783   1.440       .  S
C780        C781   1.401       .  A
C781        C782   1.399       .  A
C781        H789   1.083       .  S
C782        H790   1.083       .  S
C783        C784   1.206       .  T
C785        C786   1.206       .  T
C791        C799   1.438       .  S
C791        C792   1.401       .  A
C791        C796   1.401       .  A
C792        C793   1.398       .  A
C792        H801   1.083       .  S
C793        C794   1.401       .  A
C793        H802   1.083       .  S
C794        C797   1.439       .  S
C794        C795   1.401       .  A
C795        C796   1.399       .  A
C795        H803   1.083       .  S
C796        H804   1.083       .  S
C797        C798   1.205       .  T
C799        C800   1.205       .  T
C805        C813   1.439       .  S
C805        C806   1.401       .  A
C805        C810   1.401       .  A
C806        C807   1.399       .  A
C806        H815   1.083       .  S
C807        C808   1.401       .  A
C807        H816   1.084       .  S
C808        C811   1.439       .  S
C808        C809   1.401       .  A
C809        C810   1.399       .  A
C809        H817   1.084       .  S
C810        H818   1.083       .  S
C811        C812   1.206       .  T
C813        C814   1.205       .  T
C819        C827   1.440       .  S
C819        C820   1.401       .  A
C819        C824   1.401       .  A
C820        C821   1.399   1_565  A
C820        H829   1.083       .  S
C821        C822   1.401       .  A
C821        H830   1.083       .  S
C822        C825   1.440       .  S
C822        C823   1.401       .  A
C823        C824   1.399   1_545  A
C823        H831   1.083       .  S
C824        H832   1.083       .  S
C825        C826   1.206       .  T
C827        C828   1.206       .  T
C833        C841   1.439       .  S
C833        C834   1.401       .  A
C833        C838   1.401       .  A
C834        C835   1.399       .  A
C834        H843   1.084       .  S
C835        C836   1.401       .  A
C835        H844   1.083       .  S
C836        C839   1.440       .  S
C836        C837   1.401       .  A
C837        C838   1.399       .  A
C837        H845   1.083       .  S
C838        H846   1.084       .  S
C839        C840   1.206       .  T
C841        C842   1.206       .  T
C847        C855   1.439       .  S
C847        C848   1.401       .  A
C847        C852   1.402       .  A
C848        C849   1.398       .  A
C848        H857   1.083       .  S
C849        C850   1.401       .  A
C849        H858   1.083       .  S
C850        C853   1.439       .  S
C850        C851   1.401       .  A
C851        C852   1.399       .  A
C851        H859   1.083       .  S
C852        H860   1.083       .  S
C853        C854   1.206       .  T
C855        C856   1.206       .  T
C861        C869   1.439       .  S
C861        C862   1.401       .  A
C861        C866   1.401       .  A
C862        C863   1.399       .  A
C862        H871   1.083       .  S
C863        C864   1.401       .  A
C863        H872   1.083       .  S
C864        C867   1.439       .  S
C864        C865   1.401       .  A
C865        C866   1.398       .  A
C865        H873   1.083       .  S
C866        H874   1.083       .  S
C867        C868   1.205       .  T
C869        C870   1.205       .  T
C875        C883   1.440       .  S
C875        C876   1.401   1_556  A
C875        C880   1.401       .  A
C876        C877   1.399   1_545  A
C876        H885   1.083       .  S
C877        C878   1.401   1_554  A
C877        H886   1.083       .  S
C878        C881   1.440       .  S
C878        C879   1.401       .  A
C879        C880   1.399   1_565  A
C879        H887   1.083       .  S
C880        H888   1.083       .  S
C881        C882   1.206       .  T
C883        C884   1.206   1_556  T
C889        C897   1.440       .  S
C889        C890   1.401       .  A
C889        C894   1.401       .  A
C890        C891   1.399       .  A
C890        H899   1.084       .  S
C891        C892   1.401       .  A
C891        H900   1.083       .  S
C892        C895   1.440       .  S
C892        C893   1.402       .  A
C893        C894   1.399       .  A
C893        H901   1.083       .  S
C894        H902   1.084       .  S
C895        C896   1.206       .  T
C897        C898   1.206       .  T
C903        C911   1.439       .  S
C903        C904   1.401       .  A
C903        C908   1.401   1_554  A
C904        C905   1.399       .  A
C904        H913   1.084       .  S
C905        C906   1.401       .  A
C905        H914   1.083       .  S
C906        C909   1.440       .  S
C906        C907   1.402   1_554  A
C907        C908   1.399       .  A
C907        H915   1.083       .  S
C908        H916   1.084       .  S
C909        C910   1.206   1_554  T
C911        C912   1.206       .  T
C917        C925   1.439       .  S
C917        C918   1.401       .  A
C917        C922   1.401       .  A
C918        C919   1.399       .  A
C918        H927   1.083       .  S
C919        C920   1.401       .  A
C919        H928   1.083       .  S
C920        C923   1.439       .  S
C920        C921   1.401       .  A
C921        C922   1.398       .  A
C921        H929   1.083       .  S
C922        H930   1.083       .  S
C923        C924   1.206       .  T
C925        C926   1.205       .  T
C931        C939   1.439       .  S
C931        C932   1.401       .  A
C931        C936   1.401       .  A
C932        C933   1.399       .  A
C932        H941   1.083       .  S
C933        C934   1.401       .  A
C933        H942   1.083       .  S
C934        C937   1.439       .  S
C934        C935   1.401       .  A
C935        C936   1.399       .  A
C935        H943   1.083       .  S
C936        H944   1.083       .  S
C937        C938   1.205       .  T
C939        C940   1.205       .  T
C945        C953   1.437       .  S
C945        C946   1.401       .  A
C945        C950   1.401       .  A
C946        C947   1.398       .  A
C946        H955   1.084       .  S
C947        C948   1.401       .  A
C947        H956   1.083       .  S
C948        C951   1.438       .  S
C948        C949   1.401       .  A
C949        C950   1.398       .  A
C949        H957   1.083       .  S
C950        H958   1.084       .  S
C951        C952   1.205       .  T
C953        C954   1.205       .  T
C959        C967   1.442       .  S
C959        C960   1.402       .  A
C959        C964   1.402       .  A
C960        C961   1.400       .  A
C960        H969   1.083       .  S
C961        C962   1.402   1_455  A
C961        H970   1.083   1_455  S
C962        C965   1.442       .  S
C962        C963   1.402   1_655  A
C963        C964   1.400       .  A
C963        H971   1.083   1_455  S
C964        H972   1.083       .  S
C965        C966   1.207       .  T
C967        C968   1.207       .  T
C973        C981   1.438       .  S
C973        C974   1.401       .  A
C973        C978   1.401   1_556  A
C974        C975   1.398       .  A
C974        H983   1.083       .  S
C975        C976   1.401       .  A
C975        H984   1.084       .  S
C976        C979   1.438   1_556  S
C976        C977   1.401   1_556  A
C977        C978   1.398       .  A
C977        H985   1.084       .  S
C978        H986   1.083       .  S
C979        C980   1.205       .  T
C981        C982   1.205       .  T
C987        C995   1.439       .  S
C987        C988   1.401       .  A
C987        C992   1.401       .  A
C988        C989   1.399       .  A
C988        H997   1.083       .  S
C989        C990   1.401       .  A
C989        H998   1.083       .  S
C990        C993   1.439       .  S
C990        C991   1.401       .  A
C991        C992   1.399       .  A
C991        H999   1.083       .  S
C992       H1000   1.083       .  S
C993        C994   1.205       .  T
C995        C996   1.205       .  T
C1001      C1009   1.440       .  S
C1001      C1002   1.401       .  A
C1001      C1006   1.401       .  A
C1002      C1003   1.399       .  A
C1002      H1011   1.083       .  S
C1003      C1004   1.401       .  A
C1003      H1012   1.083       .  S
C1004      C1007   1.440       .  S
C1004      C1005   1.401       .  A
C1005      C1006   1.399       .  A
C1005      H1013   1.083       .  S
C1006      H1014   1.083       .  S
C1007      C1008   1.206       .  T
C1009      C1010   1.206       .  T
C1015      C1023   1.442       .  S
C1015      C1016   1.402   1_655  A
C1015      C1020   1.402   1_654  A
C1016      C1017   1.400       .  A
C1016      H1025   1.083   1_455  S
C1017      C1018   1.402       .  A
C1017      H1026   1.083       .  S
C1018      C1021   1.442       .  S
C1018      C1019   1.401   1_554  A
C1019      C1020   1.400       .  A
C1019      H1027   1.083       .  S
C1020      H1028   1.083   1_455  S
C1021      C1022   1.207       .  T
C1023      C1024   1.207       .  T
C1029      C1037   1.439       .  S
C1029      C1030   1.401       .  A
C1029      C1034   1.401       .  A
C1030      C1031   1.399       .  A
C1030      H1039   1.083       .  S
C1031      C1032   1.401       .  A
C1031      H1040   1.084       .  S
C1032      C1035   1.439       .  S
C1032      C1033   1.401       .  A
C1033      C1034   1.399       .  A
C1033      H1041   1.084       .  S
C1034      H1042   1.083       .  S
C1035      C1036   1.206       .  T
C1037      C1038   1.206       .  T
C1043      C1051   1.439       .  S
C1043      C1044   1.401       .  A
C1043      C1048   1.401       .  A
C1044      C1045   1.399       .  A
C1044      H1053   1.083   1_554  S
C1045      C1046   1.401       .  A
C1045      H1054   1.084       .  S
C1046      C1049   1.438       .  S
C1046      C1047   1.401       .  A
C1047      C1048   1.398       .  A
C1047      H1055   1.084       .  S
C1048      H1056   1.083       .  S
C1049      C1050   1.205       .  T
C1051      C1052   1.205       .  T
C1057      C1065   1.440       .  S
C1057      C1058   1.401       .  A
C1057      C1062   1.401       .  A
C1058      C1059   1.399       .  A
C1058      H1067   1.083       .  S
C1059      C1060   1.401       .  A
C1059      H1068   1.083       .  S
C1060      C1063   1.439       .  S
C1060      C1061   1.401       .  A
C1061      C1062   1.399       .  A
C1061      H1069   1.083       .  S
C1062      H1070   1.083       .  S
C1063      C1064   1.206       .  T
C1065      C1066   1.206       .  T
C1071      C1079   1.439       .  S
C1071      C1072   1.401       .  A
C1071      C1076   1.401       .  A
C1072      C1073   1.398       .  A
C1072      H1081   1.083       .  S
C1073      C1074   1.401       .  A
C1073      H1082   1.083       .  S
C1074      C1077   1.439       .  S
C1074      C1075   1.401       .  A
C1075      C1076   1.399       .  A
C1075      H1083   1.083       .  S
C1076      H1084   1.083       .  S
C1077      C1078   1.205       .  T
C1079      C1080   1.205       .  T
C1085      C1093   1.439       .  S
C1085      C1086   1.401       .  A
C1085      C1090   1.401       .  A
C1086      C1087   1.399       .  A
C1086      H1095   1.084       .  S
C1087      C1088   1.401       .  A
C1087      H1096   1.083       .  S
C1088      C1091   1.439       .  S
C1088      C1089   1.401       .  A
C1089      C1090   1.399       .  A
C1089      H1097   1.083       .  S
C1090      H1098   1.084       .  S
C1091      C1092   1.205       .  T
C1093      C1094   1.206       .  T
C1099      C1107   1.438       .  S
C1099      C1100   1.401       .  A
C1099      C1104   1.401       .  A
C1100      C1101   1.399   1_545  A
C1100      H1109   1.083       .  S
C1101      C1102   1.401       .  A
C1101      H1110   1.083       .  S
C1102      C1105   1.438       .  S
C1102      C1103   1.401       .  A
C1103      C1104   1.398   1_565  A
C1103      H1111   1.083       .  S
C1104      H1112   1.083       .  S
C1105      C1106   1.205       .  T
C1107      C1108   1.205       .  T
C1113      C1121   1.439       .  S
C1113      C1114   1.402   1_554  A
C1113      C1118   1.401       .  A
C1114      C1115   1.399       .  A
C1114      H1123   1.084       .  S
C1115      C1116   1.402       .  A
C1115      H1124   1.083       .  S
C1116      C1119   1.439       .  S
C1116      C1117   1.401   1_556  A
C1117      C1118   1.398       .  A
C1117      H1125   1.083       .  S
C1118      H1126   1.084       .  S
C1119      C1120   1.205       .  T
C1121      C1122   1.206   1_554  T
C1127      C1135   1.440       .  S
C1127      C1128   1.401       .  A
C1127      C1132   1.401       .  A
C1128      C1129   1.399       .  A
C1128      H1137   1.083       .  S
C1129      C1130   1.401       .  A
C1129      H1138   1.083       .  S
C1130      C1133   1.440       .  S
C1130      C1131   1.401       .  A
C1131      C1132   1.399       .  A
C1131      H1139   1.083       .  S
C1132      H1140   1.083       .  S
C1133      C1134   1.206       .  T
C1135      C1136   1.206       .  T
C1141      C1149   1.438       .  S
C1141      C1142   1.401       .  A
C1141      C1146   1.401       .  A
C1142      C1143   1.399       .  A
C1142      H1151   1.083       .  S
C1143      C1144   1.401       .  A
C1143      H1152   1.083       .  S
C1144      C1147   1.439       .  S
C1144      C1145   1.401       .  A
C1145      C1146   1.398       .  A
C1145      H1153   1.083       .  S
C1146      H1154   1.083       .  S
C1147      C1148   1.205       .  T
C1149      C1150   1.205       .  T
C1155      C1163   1.438       .  S
C1155      C1156   1.401       .  A
C1155      C1160   1.401   1_554  A
C1156      C1157   1.398   1_545  A
C1156      H1165   1.083       .  S
C1157      C1158   1.401       .  A
C1157      H1166   1.083       .  S
C1158      C1161   1.437       .  S
C1158      C1159   1.401   1_554  A
C1159      C1160   1.398   1_565  A
C1159      H1167   1.083       .  S
C1160      H1168   1.083       .  S
C1161      C1162   1.204       .  T
C1163      C1164   1.205       .  T
