geometry optimzed in LAMMPS
_audit_creation_date              2020-12-01 
_audit_creation_method            'lammps2cif' 
_symmetry_space_group_name_H-M    'P1' 
_symmetry_Int_Tables_number       1 
_symmetry_cell_setting            triclinic 
loop_ 
_symmetry_equiv_pos_as_xyz 
  x,y,z 
_cell_length_a                    49.65198133 
_cell_length_b                    50.94081583152486 
_cell_length_c                    50.332068737818744 
_cell_angle_alpha                 90.11764883023955 
_cell_angle_beta                  89.99470079648799 
_cell_angle_gamma                 90.02767283450503 
loop_ 
_atom_site_label 
_atom_site_type_symbol 
_atom_site_fract_x 
_atom_site_fract_y 
_atom_site_fract_z 
_atom_site_charge 
O1          O  0.52297348  0.71210157  0.02246135    -0.72800
O2          O  0.46731651  0.65563065  0.01894192    -0.73700
O3          O  0.52404451  0.65663411  0.01763182    -0.62400
O4          O  0.46514980  0.71082852  0.02336816    -0.70800
O5          O  0.46499802  0.71470376  0.97951517    -0.70300
O6          O  0.52283480  0.65953745  0.97372181    -0.61600
O7          O  0.46549425  0.65924113  0.97505647    -0.74100
O8          O  0.52265805  0.71477721  0.97850499    -0.72900
Cu9        Cu  0.49489911  0.68379957  0.02211662     1.04600
Cu10       Cu  0.49394030  0.68729396  0.97517079     1.04300
C11         C  0.53237498  0.72172925  0.00096868     0.93400
C12         C  0.45763170  0.64844105  0.99660144     0.92600
C13         C  0.53264315  0.64937231  0.99480710     0.84700
C14         C  0.45526431  0.72084032  0.00221790     0.91000
C15         C  0.85442590  0.68555564  0.00924198    -0.02300
C16         C  0.70677471  0.82694865  0.00288124    -0.02300
O17         O  0.68970426  0.44519138  0.97478823    -0.72800
O18         O  0.74529930  0.50250557  0.97566872    -0.73700
O19         O  0.74655634  0.44629112  0.97692396    -0.62400
O20         O  0.68832170  0.50129776  0.97347040    -0.70800
O21         O  0.68769136  0.50340579  0.01745308    -0.70300
O22         O  0.74394284  0.44661631  0.02080876    -0.61600
O23         O  0.74441989  0.50283030  0.01963035    -0.74100
O24         O  0.68677868  0.44735628  0.01871045    -0.72900
Cu25       Cu  0.71757186  0.47377886  0.97369666     1.04600
Cu26       Cu  0.71569620  0.47505056  0.02067394     1.04300
C27         C  0.67948374  0.43717681  0.99661381     0.93400
C28         C  0.75329528  0.51217734  0.99775657     0.92600
C29         C  0.75398813  0.43718993  0.99942478     0.84700
C30         C  0.67923541  0.51148642  0.99491931     0.91000
C31         C  0.71633283  0.11363825  0.00047612    -0.02300
C32         C  0.85565419  0.26397165  0.99773799    -0.02300
O33         O  0.47142966  0.28153711  0.97724692    -0.72800
O34         O  0.53160240  0.22840841  0.97733719    -0.73700
O35         O  0.47384039  0.22607903  0.97906797    -0.62400
O36         O  0.52916588  0.28420038  0.97595227    -0.70800
O37         O  0.53019569  0.28487245  0.01991199    -0.70300
O38         O  0.47429891  0.22832094  0.02301430    -0.61600
O39         O  0.53205019  0.22961501  0.02130895    -0.74100
O40         O  0.47302366  0.28384372  0.02121924    -0.72900
Cu41       Cu  0.50147982  0.25496182  0.97584596     1.04600
Cu42       Cu  0.50243495  0.25662927  0.02284224     1.04300
C43         C  0.46260733  0.29095259  0.99914830     0.93400
C44         C  0.54182891  0.22107387  0.99942152     0.92600
C45         C  0.46470456  0.21860040  0.00158900     0.84700
C46         C  0.53871275  0.29350105  0.99765310     0.91000
C47         C  0.14053558  0.26080835  0.99789464    -0.02300
C48         C  0.28744132  0.11879173  0.99524199    -0.02300
C49         C  0.14958421  0.68406489  0.00328124    -0.02300
C50         C  0.28627797  0.83570711  0.99809112    -0.02300
O51         O  0.25240002  0.44185078  0.97033255    -0.72800
O52         O  0.31105419  0.49501934  0.97359129    -0.73700
O53         O  0.30926616  0.43928510  0.97313058    -0.62400
O54         O  0.25457243  0.49793441  0.97140834    -0.70800
O55         O  0.25217787  0.49699926  0.01535949    -0.70300
O56         O  0.30720104  0.43922175  0.01706485    -0.61600
O57         O  0.30901251  0.49536596  0.01755559    -0.74100
O58         O  0.25021046  0.44101836  0.01427780    -0.72900
Cu59       Cu  0.28182337  0.46850470  0.97061623     1.04600
Cu60       Cu  0.27953992  0.46810516  0.01760515     1.04300
C61         C  0.24236456  0.43249387  0.99164046     0.93400
C62         C  0.31914968  0.50397045  0.99587882     0.92600
C63         C  0.31685043  0.42988898  0.99548080     0.84700
C64         C  0.24528160  0.50719756  0.99321910     0.91000
O65         O  0.53178372  0.95397025  0.74483964    -0.72800
O66         O  0.47517395  0.95193532  0.68766207    -0.73700
O67         O  0.53274455  0.95120114  0.68856634    -0.62400
O68         O  0.47402356  0.95488029  0.74389538    -0.70800
O69         O  0.47515786  0.99828411  0.74212177    -0.70300
O70         O  0.53257818  0.99459301  0.68590056    -0.61600
O71         O  0.47505910  0.99538901  0.68609075    -0.74100
O72         O  0.53312626  0.99732820  0.74222765    -0.72900
Cu73       Cu  0.50341339  0.95150627  0.71638234     1.04600
Cu74       Cu  0.50403115  0.99789516  0.71408776     1.04300
C75         C  0.54200628  0.97587348  0.75210043     0.93400
C76         C  0.46589657  0.97329427  0.67801794     0.92600
C77         C  0.54198998  0.97239712  0.67847560     0.84700
C78         C  0.46473623  0.97718403  0.75120233     0.91000
C79         C  0.86395663  0.97092557  0.71616927    -0.02300
C80         C  0.71575148  0.96893019  0.86056597    -0.02300
O81         O  0.75591286  0.99284711  0.53032746    -0.72800
O82         O  0.69772432  0.99508757  0.47454830    -0.73700
O83         O  0.69873767  0.99344688  0.53117966    -0.62400
O84         O  0.75499935  0.99460871  0.47338803    -0.70800
O85         O  0.75556056  0.95116614  0.47280596    -0.70300
O86         O  0.69698587  0.95003343  0.52843804    -0.61600
O87         O  0.69840241  0.95167699  0.47211008    -0.74100
O88         O  0.75418422  0.94937656  0.52981979    -0.72900
Cu89       Cu  0.72694706  0.99550803  0.50239251     1.04600
Cu90       Cu  0.72637275  0.94907052  0.50074174     1.04300
C91         C  0.76355792  0.97070367  0.53956592     0.93400
C92         C  0.68895505  0.97369315  0.46437334     0.92600
C93         C  0.68869173  0.97155904  0.53867777     0.84700
C94         C  0.76393699  0.97311378  0.46362568     0.91000
C95         C  0.13869070  0.97612002  0.71257853    -0.02300
C96         C  0.28776317  0.97706789  0.85529723    -0.02300
O97         O  0.30873735  0.99099916  0.53101536    -0.72800
O98         O  0.25187301  0.99185404  0.47422524    -0.73700
O99         O  0.25147237  0.98956584  0.53103441    -0.62400
O100        O  0.30874755  0.99320143  0.47478732    -0.70800
O101        O  0.31078885  0.94974977  0.47394131    -0.70300
O102        O  0.25220493  0.94614153  0.52882550    -0.61600
O103        O  0.25374789  0.94849218  0.47184115    -0.74100
O104        O  0.30915433  0.94746694  0.53036112    -0.72900
Cu105      Cu  0.28006506  0.99289023  0.50286574     1.04600
Cu106      Cu  0.28139582  0.94644328  0.50117499     1.04300
C107        C  0.31798791  0.96920340  0.53963853     0.93400
C108        C  0.24447351  0.97035323  0.46332640     0.92600
C109        C  0.24316642  0.96725477  0.53928170     0.84700
C110        C  0.31896275  0.97205148  0.46556303     0.91000
C111        C  0.29136060  0.98003820  0.14311082    -0.02300
C112        C  0.14347326  0.97743376  0.28681766    -0.02300
C113        C  0.71619428  0.97222232  0.14524415    -0.02300
C114        C  0.86504722  0.97127053  0.28799976    -0.02300
O115        O  0.47525160  0.99888256  0.31779975    -0.72800
O116        O  0.53198673  0.99666390  0.26047231    -0.73700
O117        O  0.47383777  0.99765558  0.26147500    -0.62400
O118        O  0.53270884  0.99809460  0.31655104    -0.70800
O119        O  0.53113871  0.95462794  0.31818387    -0.70300
O120        O  0.47351200  0.95405379  0.26205895    -0.61600
O121        O  0.53158170  0.95320738  0.26219420    -0.74100
O122        O  0.47403851  0.95535353  0.31773695    -0.72900
Cu123      Cu  0.50346725  0.99936992  0.28890665     1.04600
Cu124      Cu  0.50257391  0.95283737  0.28993530     1.04300
C125        C  0.46552749  0.97733121  0.32660941     0.93400
C126        C  0.54171801  0.97450419  0.25329285     0.92600
C127        C  0.46373373  0.97579372  0.25393911     0.84700
C128        C  0.54111409  0.97638905  0.32617875     0.91000
O129        O  0.97164819  0.44842374  0.74347710    -0.72800
O130        O  0.97290490  0.50470510  0.68824929    -0.73700
O131        O  0.97293797  0.44910576  0.68763497    -0.62400
O132        O  0.97157297  0.50517717  0.74417925    -0.70800
O133        O  0.01620522  0.50545271  0.74404488    -0.70300
O134        O  0.01749778  0.44804041  0.68937577    -0.61600
O135        O  0.01755026  0.50356104  0.68819977    -0.74100
O136        O  0.01625218  0.44870787  0.74530927    -0.72900
Cu137      Cu  0.97071465  0.47685812  0.71605062     1.04600
Cu138      Cu  0.01841198  0.47647245  0.71697925     1.04300
C139        C  0.99368718  0.43856446  0.75194644     0.93400
C140        C  0.99545231  0.51275871  0.67917007     0.92600
C141        C  0.99537063  0.43967124  0.67956046     0.84700
C142        C  0.99384813  0.51524889  0.75187057     0.91000
C143        C  0.00257788  0.82428518  0.71600223    -0.02300
C144        C  0.99899190  0.68314586  0.86330895    -0.02300
O145        O  0.01810187  0.65933191  0.52853187    -0.72800
O146        O  0.02222818  0.71506547  0.47346271    -0.73700
O147        O  0.02218642  0.71427270  0.53043039    -0.62400
O148        O  0.01800098  0.65994650  0.47227694    -0.70800
O149        O  0.97360118  0.66382348  0.47135379    -0.70300
O150        O  0.97753850  0.71586826  0.53119272    -0.61600
O151        O  0.97780488  0.71912575  0.47380814    -0.74100
O152        O  0.97346374  0.66089821  0.52763574    -0.72900
Cu153      Cu  0.02164232  0.68718126  0.50114779     1.04600
Cu154      Cu  0.97403050  0.69021280  0.50098438     1.04300
C155        C  0.99528997  0.65116728  0.53677240     0.93400
C156        C  0.00076851  0.72529866  0.46411681     0.92600
C157        C  0.00032812  0.72239929  0.54103557     0.84700
C158        C  0.99519212  0.65336062  0.46248928     0.91000
C159        C  0.00323552  0.68463345  0.14264318    -0.02300
C160        C  0.00858134  0.82626693  0.28947351    -0.02300
O161        O  0.01459797  0.50866614  0.30818246    -0.72800
O162        O  0.01695003  0.44760969  0.25795259    -0.73700
O163        O  0.01744548  0.50349119  0.25273584    -0.62400
O164        O  0.01382998  0.45341575  0.31371482    -0.70800
O165        O  0.96934172  0.45263246  0.31078794    -0.70300
O166        O  0.97284313  0.50430968  0.25062011    -0.61600
O167        O  0.97245698  0.44813416  0.25455723    -0.74100
O168        O  0.96992385  0.50807873  0.30692160    -0.72900
Cu169      Cu  0.01721714  0.47824576  0.28308603     1.04600
Cu170      Cu  0.96956076  0.47828083  0.28049702     1.04300
C171        C  0.99192578  0.51775931  0.31582242     0.93400
C172        C  0.99517982  0.43783079  0.24866938     0.92600
C173        C  0.99576350  0.51281839  0.24290383     0.84700
C174        C  0.99107232  0.44514166  0.32208620     0.91000
C175        C  0.99991735  0.12238634  0.70517464    -0.02300
C176        C  0.99635873  0.26403001  0.85122975    -0.02300
C177        C  0.00128149  0.12157124  0.28852144    -0.02300
C178        C  0.99933838  0.26529375  0.14453790    -0.02300
O179        O  0.97078119  0.29171642  0.52777915    -0.72800
O180        O  0.96782162  0.23883081  0.46860886    -0.73700
O181        O  0.97127937  0.23633941  0.52550187    -0.62400
O182        O  0.96733511  0.29434836  0.47166758    -0.70800
O183        O  0.01184412  0.29361737  0.46773570    -0.70300
O184        O  0.01588114  0.23845392  0.52414302    -0.61600
O185        O  0.01245280  0.23811093  0.46728708    -0.74100
O186        O  0.01522413  0.29389995  0.52403890    -0.72900
Cu187      Cu  0.96775483  0.26516682  0.49844241     1.04600
Cu188      Cu  0.01540740  0.26590708  0.49567705     1.04300
C189        C  0.99335056  0.30136211  0.53512985     0.93400
C190        C  0.98969190  0.23049170  0.45820297     0.92600
C191        C  0.99428370  0.22920777  0.53429251     0.84700
C192        C  0.98898392  0.30312229  0.46121268     0.91000
C193        C  0.96847456  0.19896926  0.39292504    -0.27400
C194        C  0.99021923  0.18209362  0.38791810     0.02200
C195        C  0.01101373  0.18013709  0.40685508     0.30300
C196        C  0.01029022  0.19548297  0.42995408    -0.19200
C197        C  0.98880875  0.21277315  0.43480423    -0.28600
C198        C  0.96769149  0.21430730  0.41606130     0.44300
C199        C  0.99183497  0.16755993  0.36238219     0.05500
O200        O  0.03237684  0.16354546  0.40276897    -0.57200
H201        H  0.02671709  0.19400299  0.44403798     0.18400
O202        O  0.94679801  0.23159142  0.41951208    -0.63900
H203        H  0.95251882  0.20097783  0.37838929     0.16900
C204        C  0.97135355  0.15032435  0.35428308     0.29100
C205        C  0.97383992  0.13633021  0.33041340    -0.24800
C206        C  0.99732891  0.13812323  0.31446548    -0.24000
C207        C  0.01688079  0.15713776  0.32207604     0.40600
C208        C  0.01416136  0.17121403  0.34583737    -0.26500
O209        O  0.94930824  0.14612998  0.37016377    -0.58400
H210        H  0.95693145  0.12426193  0.32473588     0.16200
O211        O  0.03970408  0.16089698  0.30721711    -0.59800
H212        H  0.02979306  0.18498881  0.35148749     0.14700
H213        H  0.95296534  0.24821864  0.41127874     0.46500
H214        H  0.93448581  0.15621194  0.36184387     0.41900
H215        H  0.03740319  0.17831134  0.29872931     0.45300
H216        H  0.02568710  0.14587196  0.40772604     0.36800
C217        C  0.02279048  0.16871988  0.23061862    -0.27400
C218        C  0.99966948  0.18421016  0.22796685     0.02200
C219        C  0.97779540  0.17947901  0.24507775     0.30300
C220        C  0.97896860  0.15906292  0.26355550    -0.19200
C221        C  0.00194617  0.14282575  0.26618274    -0.28600
C222        C  0.02467170  0.14908618  0.24999386     0.44300
C223        C  0.99888582  0.20548855  0.20767209     0.05500
O224        O  0.95524513  0.19499838  0.24434816    -0.57200
H225        H  0.96161226  0.15584265  0.27618605     0.18400
O226        O  0.04970088  0.13864492  0.25461107    -0.63900
H227        H  0.04003197  0.17220913  0.21793827     0.16900
C228        C  0.02058380  0.22299312  0.20433605     0.29100
C229        C  0.01963631  0.24215322  0.18447958    -0.24800
C230        C  0.99764076  0.24416602  0.16679064    -0.24000
C231        C  0.97465771  0.22835937  0.17240285     0.40600
C232        C  0.97605079  0.20858160  0.19161886    -0.26500
O233        O  0.04249440  0.22211958  0.22093894    -0.58400
H234        H  0.03681139  0.25507755  0.18222782     0.16200
O235        O  0.95026495  0.23245494  0.16036420    -0.59800
H236        H  0.95882372  0.19578309  0.19416585     0.14700
H237        H  0.05525666  0.13004737  0.23777125     0.46500
H238        H  0.05777090  0.21626608  0.20968453     0.41900
H239        H  0.93952046  0.24278225  0.17328230     0.45300
H240        H  0.95938070  0.21011016  0.25610678     0.36800
C241        C  0.02256374  0.15572886  0.63881620    -0.27400
C242        C  0.99884982  0.16851191  0.63122569     0.02200
C243        C  0.97651233  0.16766337  0.64834698     0.30300
C244        C  0.97762582  0.15288250  0.67169818    -0.19200
C245        C  0.00082725  0.13837927  0.67881051    -0.28600
C246        C  0.02417624  0.14168430  0.66265271     0.44300
C247        C  0.99806064  0.18342348  0.60588840     0.05500
O248        O  0.95353976  0.18148773  0.64264600    -0.57200
H249        H  0.95991169  0.15230478  0.68422121     0.18400
O250        O  0.04923265  0.13375973  0.67092499    -0.63900
H251        H  0.04032525  0.15702305  0.62638278     0.16900
C252        C  0.01851728  0.20153347  0.59947117     0.29100
C253        C  0.01760347  0.21519102  0.57545263    -0.24800
C254        C  0.99607797  0.21176712  0.55768884    -0.24000
C255        C  0.97569873  0.19351675  0.56393223     0.40600
C256        C  0.97687416  0.17942220  0.58779902    -0.26500
O257        O  0.03911687  0.20666431  0.61688957    -0.58400
H258        H  0.03326357  0.22942098  0.57127685     0.16200
O259        O  0.95452633  0.18934917  0.54694456    -0.59800
H260        H  0.96119084  0.16528250  0.59217850     0.14700
H261        H  0.05611631  0.12174452  0.65693901     0.46500
H262        H  0.03208017  0.22046214  0.62896048     0.41900
H263        H  0.96075128  0.17542602  0.53459192     0.45300
H264        H  0.95656757  0.19922329  0.65024345     0.36800
C265        C  0.01870250  0.20627515  0.80460345    -0.27400
C266        C  0.99713909  0.20539127  0.78672500     0.02200
C267        C  0.97606314  0.22355740  0.78966054     0.30300
C268        C  0.97642285  0.24154512  0.81063571    -0.19200
C269        C  0.99761026  0.24223973  0.82948160    -0.28600
C270        C  0.01963856  0.22473392  0.82528085     0.44300
C271        C  0.99704043  0.18548045  0.76509694     0.05500
O272        O  0.95510943  0.22422029  0.77191664    -0.57200
H273        H  0.95975859  0.25516553  0.81237092     0.18400
O274        O  0.04335594  0.22704093  0.83908663    -0.63900
H275        H  0.03536328  0.19273767  0.80231710     0.16900
C276        C  0.01958558  0.18180248  0.74862857     0.29100
C277        C  0.01954770  0.16183032  0.72951953    -0.24800
C278        C  0.99759826  0.14434931  0.72666398    -0.24000
C279        C  0.97379909  0.15026759  0.74138242     0.40600
C280        C  0.97416213  0.16997288  0.76086209    -0.26500
O281        O  0.04139915  0.19827537  0.75040651    -0.58400
H282        H  0.03729620  0.15943621  0.71725580     0.16200
O283        O  0.94939607  0.13909596  0.73526111    -0.59800
H284        H  0.95617855  0.17329214  0.77258677     0.14700
H285        H  0.04693193  0.20955207  0.84703397     0.46500
H286        H  0.05619705  0.18743143  0.75778558     0.41900
H287        H  0.94277650  0.13083379  0.75187113     0.45300
H288        H  0.96179798  0.23473859  0.75672130     0.36800
C289        C  0.01161311  0.40127831  0.37971314    -0.27400
C290        C  0.98749018  0.38793487  0.38502310     0.02200
C291        C  0.96406679  0.39496997  0.37094652     0.30300
C292        C  0.96533501  0.41417661  0.35111325    -0.19200
C293        C  0.98985380  0.42651473  0.34472498    -0.28600
C294        C  0.01299119  0.42030366  0.35979195     0.44300
C295        C  0.98744830  0.36596104  0.40436571     0.05500
O296        O  0.94001382  0.38261560  0.37577510    -0.57200
H297        H  0.94717286  0.41879011  0.34015685     0.18400
O298        O  0.03726584  0.43222446  0.35493880    -0.63900
H299        H  0.02965638  0.39665897  0.39086103     0.16900
C300        C  0.00641691  0.34547790  0.40218604     0.29100
C301        C  0.00657242  0.32510656  0.42077090    -0.24800
C302        C  0.98777742  0.32453071  0.44154767    -0.24000
C303        C  0.96856446  0.34480585  0.44359399     0.40600
C304        C  0.96855996  0.36535411  0.42513752    -0.26500
O305        O  0.02413213  0.34464399  0.38126462    -0.58400
H306        H  0.02125897  0.30950325  0.41870921     0.16200
O307        O  0.95008408  0.34506073  0.46385745    -0.59800
H308        H  0.95401387  0.38105986  0.42728576     0.14700
H309        H  0.03761929  0.44779292  0.36680118     0.46500
H310        H  0.04201941  0.34879437  0.38898469     0.41900
H311        H  0.95978977  0.35249117  0.47936845     0.45300
H312        H  0.94032598  0.36658839  0.36455964     0.36800
C313        C  0.02234938  0.33241467  0.17575429    -0.27400
C314        C  0.99930466  0.33961198  0.19005490     0.02200
C315        C  0.97750851  0.32202758  0.19091978     0.30300
C316        C  0.97836901  0.29862571  0.17635875    -0.19200
C317        C  0.00079821  0.29174643  0.16042302    -0.28600
C318        C  0.02376698  0.30853706  0.16188432     0.44300
C319        C  0.99855782  0.36512934  0.20456499     0.05500
O320        O  0.95530900  0.32733193  0.20623039    -0.57200
H321        H  0.96102967  0.28578029  0.17717907     0.18400
O322        O  0.04844865  0.30104622  0.15221189    -0.63900
H323        H  0.03974070  0.34526136  0.17560039     0.16900
C324        C  0.01992958  0.37289834  0.22128354     0.29100
C325        C  0.01887723  0.39698233  0.23463841    -0.24800
C326        C  0.99646547  0.41365039  0.23217257    -0.24000
C327        C  0.97522991  0.40608111  0.21516616     0.40600
C328        C  0.97641571  0.38205761  0.20154428    -0.26500
O329        O  0.04172093  0.35683847  0.22527195    -0.58400
H330        H  0.03537487  0.40220414  0.24771102     0.16200
O331        O  0.95323423  0.42196379  0.21163202    -0.59800
H332        H  0.96001128  0.37670634  0.18841190     0.14700
H333        H  0.05385036  0.31477228  0.13928818     0.46500
H334        H  0.03596568  0.34424000  0.23915864     0.41900
H335        H  0.95822804  0.43391646  0.19690061     0.45300
H336        H  0.95948206  0.31985888  0.22393999     0.36800
C337        C  0.01801349  0.57580855  0.20985652    -0.27400
C338        C  0.99660512  0.58063590  0.19248681     0.02200
C339        C  0.97572651  0.56211341  0.19012286     0.30300
C340        C  0.97609182  0.53938329  0.20585300    -0.19200
C341        C  0.99720668  0.53490200  0.22391816    -0.28600
C342        C  0.01849801  0.55321544  0.22547419     0.44300
C343        C  0.99642514  0.60561098  0.17771901     0.05500
O344        O  0.95524244  0.56590832  0.17224697    -0.57200
H345        H  0.95966398  0.52546572  0.20422220     0.18400
O346        O  0.03887383  0.55027357  0.24363008    -0.63900
H347        H  0.03408997  0.59007793  0.21189032     0.16900
C348        C  0.97837611  0.62571619  0.18425538     0.29100
C349        C  0.98112640  0.65043863  0.17253736    -0.24800
C350        C  0.00224248  0.65619839  0.15447498    -0.24000
C351        C  0.01908477  0.63477147  0.14658620     0.40600
C352        C  0.01621205  0.61014823  0.15860881    -0.26500
O353        O  0.95890425  0.62181099  0.20317860    -0.58400
H354        H  0.96699487  0.66566114  0.17818860     0.16200
O355        O  0.03641412  0.63644432  0.12542682    -0.59800
H356        H  0.02955934  0.59430363  0.15281038     0.14700
H357        H  0.05439545  0.54344345  0.23330847     0.46500
H358        H  0.94184275  0.61979306  0.19314821     0.41900
H359        H  0.05454909  0.63210907  0.13248589     0.45300
H360        H  0.93927991  0.57065070  0.18308955     0.36800
C361        C  0.00765375  0.75212871  0.17892657    -0.27400
C362        C  0.00983092  0.74491603  0.20565877     0.02200
C363        C  0.01223021  0.71822198  0.21204030     0.30300
C364        C  0.01104344  0.69913320  0.19200065    -0.19200
C365        C  0.00641618  0.70587373  0.16504718    -0.28600
C366        C  0.00658723  0.73309893  0.15878144     0.44300
C367        C  0.00933386  0.76536535  0.22674371     0.05500
O368        O  0.01454560  0.71046667  0.23803253    -0.57200
H369        H  0.01399189  0.67905777  0.19812089     0.18400
O370        O  0.00443568  0.74138697  0.13297524    -0.63900
H371        H  0.00669104  0.77270631  0.17360423     0.16900
C372        C  0.98691819  0.78185000  0.22983364     0.29100
C373        C  0.98638670  0.80063784  0.25017212    -0.24800
C374        C  0.00875895  0.80477515  0.26717249    -0.24000
C375        C  0.03073070  0.78703195  0.26451170     0.40600
C376        C  0.03098681  0.76797564  0.24434965    -0.26500
O377        O  0.96481670  0.77896210  0.21372965    -0.58400
H378        H  0.96793416  0.81159087  0.25245807     0.16200
O379        O  0.05251285  0.78856776  0.28116250    -0.59800
H380        H  0.04832942  0.75521518  0.24240873     0.14700
H381        H  0.02284485  0.74696215  0.12785210     0.46500
H382        H  0.96637571  0.79312708  0.20031793     0.41900
H383        H  0.05077570  0.77332952  0.29328906     0.45300
H384        H  0.03390130  0.70650508  0.24058007     0.36800
C385        C  0.96970293  0.61053478  0.40557230    -0.27400
C386        C  0.99282655  0.59605771  0.39912926     0.02200
C387        C  0.01664010  0.60039023  0.41371240     0.30300
C388        C  0.01709840  0.61905062  0.43417656    -0.19200
C389        C  0.99391985  0.63354958  0.44077091    -0.28600
C390        C  0.96998571  0.62892348  0.42628163     0.44300
C391        C  0.99186554  0.57652646  0.37719271     0.05500
O392        O  0.03956222  0.58636040  0.40825176    -0.57200
H393        H  0.03569103  0.62199823  0.44504219     0.18400
O394        O  0.94690906  0.64276146  0.43157404    -0.63900
H395        H  0.95132689  0.60775821  0.39430904     0.16900
C396        C  0.97212433  0.55663422  0.37672805     0.29100
C397        C  0.97188639  0.53810880  0.35613065    -0.24800
C398        C  0.99124768  0.53894341  0.33586029    -0.24000
C399        C  0.01065884  0.55912624  0.33598699     0.40600
C400        C  0.01076641  0.57779847  0.35646547    -0.26500
O401        O  0.95391241  0.55430052  0.39709165    -0.58400
H402        H  0.95704583  0.52250796  0.35650577     0.16200
O403        O  0.02900982  0.56126816  0.31572349    -0.59800
H404        H  0.02565974  0.59334856  0.35615283     0.14700
H405        H  0.93601680  0.63112962  0.44316223     0.46500
H406        H  0.93647222  0.56024271  0.38961884     0.41900
H407        H  0.04584176  0.55339663  0.32269599     0.45300
H408        H  0.03811806  0.57020972  0.41913505     0.36800
C409        C  0.03002126  0.79875013  0.35904306    -0.27400
C410        C  0.00760363  0.78337200  0.36552277     0.02200
C411        C  0.98716978  0.78009800  0.34646264     0.30300
C412        C  0.98880960  0.79305574  0.32203220    -0.19200
C413        C  0.01012256  0.81053698  0.31608751    -0.28600
C414        C  0.03204941  0.81133957  0.33441986     0.44300
C415        C  0.00634877  0.76994786  0.39172155     0.05500
O416        O  0.96533487  0.76438483  0.35152406    -0.57200
H417        H  0.97250936  0.79042780  0.30796469     0.18400
O418        O  0.05595504  0.82355652  0.32859433    -0.63900
H419        H  0.04639059  0.80089526  0.37311427     0.16900
C420        C  0.02827238  0.75502483  0.40103623     0.29100
C421        C  0.02652044  0.74194205  0.42531908    -0.24800
C422        C  0.00282532  0.74272937  0.44060747    -0.24000
C423        C  0.98104343  0.75810585  0.43159883     0.40600
C424        C  0.98300227  0.77167305  0.40744391    -0.26500
O425        O  0.05121647  0.75223302  0.38610778    -0.58400
H426        H  0.04349274  0.73009462  0.43154040     0.16200
O427        O  0.95756292  0.75960372  0.44586464    -0.59800
H428        H  0.96609787  0.78341606  0.40085631     0.14700
H429        H  0.06937832  0.80931452  0.32631340     0.46500
H430        H  0.04772802  0.73697314  0.37433815     0.41900
H431        H  0.95949766  0.77548785  0.45712675     0.45300
H432        H  0.97100545  0.74646945  0.34620483     0.36800
C433        C  0.97843840  0.78926623  0.65080842    -0.27400
C434        C  0.00240919  0.77770983  0.64191265     0.02200
C435        C  0.02550226  0.77977154  0.65795019     0.30300
C436        C  0.02453405  0.79393949  0.68182869    -0.19200
C437        C  0.00115161  0.80776287  0.68984562    -0.28600
C438        C  0.97733590  0.80359512  0.67460347     0.44300
C439        C  0.00261333  0.76305718  0.61623400     0.05500
O440        O  0.04920654  0.76807193  0.65050461    -0.57200
H441        H  0.04268159  0.79518303  0.69370374     0.18400
O442        O  0.95244917  0.81119118  0.68369286    -0.63900
H443        H  0.96017314  0.78709806  0.63923249     0.16900
C444        C  0.98263206  0.74417756  0.61059363     0.29100
C445        C  0.98167828  0.73207176  0.58565954    -0.24800
C446        C  0.00110095  0.73754839  0.56617564    -0.24000
C447        C  0.02174973  0.75564940  0.57204788     0.40600
C448        C  0.02219729  0.76849761  0.59678411    -0.26500
O449        O  0.96418348  0.73700993  0.62953023    -0.58400
H450        H  0.96616117  0.71756357  0.58189232     0.16200
O451        O  0.04143517  0.76106578  0.55374906    -0.59800
H452        H  0.03769659  0.78298327  0.60064551     0.14700
H453        H  0.94475084  0.82274117  0.66976073     0.46500
H454        H  0.97259009  0.72212070  0.63911116     0.41900
H455        H  0.03431535  0.77590072  0.54313728     0.45300
H456        H  0.04791175  0.74976776  0.65704701     0.36800
C457        C  0.02712255  0.77775385  0.77324993    -0.27400
C458        C  0.00413020  0.76222197  0.77726398     0.02200
C459        C  0.98213530  0.76558299  0.75996248     0.30300
C460        C  0.98244407  0.78553586  0.74093513    -0.19200
C461        C  0.00469366  0.80262111  0.73783702    -0.28600
C462        C  0.02806879  0.79697112  0.75322708     0.44300
C463        C  0.00306376  0.74276650  0.79949472     0.05500
O464        O  0.96012815  0.74935379  0.76131540    -0.57200
H465        H  0.96475381  0.78797166  0.72864489     0.18400
O466        O  0.05255276  0.80815952  0.74756962    -0.63900
H467        H  0.04470266  0.77500631  0.78564623     0.16900
C468        C  0.02448218  0.72547818  0.80473625     0.29100
C469        C  0.02250926  0.70732496  0.82551440    -0.24800
C470        C  0.99950708  0.70565979  0.84210594    -0.24000
C471        C  0.97755576  0.72257931  0.83589339     0.40600
C472        C  0.97992962  0.74114748  0.81543292    -0.26500
O473        O  0.04682361  0.72501906  0.78868243    -0.58400
H474        H  0.03923371  0.69406084  0.82860525     0.16200
O475        O  0.95276252  0.71973704  0.84754275    -0.59800
H476        H  0.96306875  0.75410169  0.81166984     0.14700
H477        H  0.05862153  0.81684678  0.76420825     0.46500
H478        H  0.06185239  0.73153415  0.79989131     0.41900
H479        H  0.94915218  0.73654878  0.85687261     0.45300
H480        H  0.96462222  0.73415470  0.74980019     0.36800
C481        C  0.97494878  0.34115317  0.59636689    -0.27400
C482        C  0.99488846  0.36068122  0.59629936     0.02200
C483        C  0.01476053  0.36023817  0.57626906     0.30300
C484        C  0.01437289  0.34057212  0.55675025    -0.19200
C485        C  0.99403691  0.32137759  0.55651109    -0.28600
C486        C  0.97428528  0.32176556  0.57664143     0.44300
C487        C  0.99497202  0.38106072  0.61747862     0.05500
O488        O  0.03448457  0.37908395  0.57540314    -0.57200
H489        H  0.02969760  0.34067772  0.54142309     0.18400
O490        O  0.95493974  0.30257572  0.57793498    -0.63900
H491        H  0.95995598  0.34072069  0.61199535     0.16900
C492        C  0.97171376  0.39587432  0.62317590     0.29100
C493        C  0.97215629  0.41471034  0.64347886    -0.24800
C494        C  0.99557882  0.41919244  0.65850949    -0.24000
C495        C  0.01882427  0.40418752  0.65286628     0.40600
C496        C  0.01835881  0.38539341  0.63252042    -0.26500
O497        O  0.94880787  0.39289270  0.60820755    -0.58400
H498        H  0.95411159  0.42609259  0.64717960     0.16200
O499        O  0.04213373  0.40760543  0.66707813    -0.59800
H500        H  0.03630031  0.37388923  0.62870554     0.14700
H501        H  0.93843297  0.31067935  0.57048771     0.46500
H502        H  0.93573367  0.38387412  0.61993827     0.41900
H503        H  0.04123284  0.39450742  0.68161673     0.45300
H504        H  0.02604369  0.39437851  0.56653742     0.36800
C505        C  0.01711678  0.55426678  0.62046142    -0.27400
C506        C  0.99511641  0.57137694  0.61797248     0.02200
C507        C  0.97338460  0.56917589  0.63578805     0.30300
C508        C  0.97367331  0.54984182  0.65541883    -0.19200
C509        C  0.99578746  0.53287635  0.65811847    -0.28600
C510        C  0.01770330  0.53529179  0.64046460     0.44300
C511        C  0.99517975  0.59167848  0.59699877     0.05500
O512        O  0.95196844  0.58612347  0.63447564    -0.57200
H513        H  0.95673717  0.54848608  0.66892426     0.18400
O514        O  0.03968367  0.51910054  0.64236939    -0.63900
H515        H  0.03385923  0.55549246  0.60671784     0.16900
C516        C  0.01709226  0.60898468  0.59428087     0.29100
C517        C  0.01666211  0.62824628  0.57461622    -0.24800
C518        C  0.99460788  0.63063567  0.55734586    -0.24000
C519        C  0.97267291  0.61327058  0.55997860     0.40600
C520        C  0.97311789  0.59393348  0.57967352    -0.26500
O521        O  0.03846404  0.60798094  0.61154101    -0.58400
H522        H  0.03357638  0.64161634  0.57314076     0.16200
O523        O  0.95088500  0.61477839  0.54329893    -0.59800
H524        H  0.95626973  0.58050591  0.58129881     0.14700
H525        H  0.03558862  0.50395364  0.63064238     0.46500
H526        H  0.05366056  0.60074326  0.60106226     0.41900
H527        H  0.95596310  0.60435733  0.52740572     0.45300
H528        H  0.95725145  0.60141337  0.64553874     0.36800
C529        C  0.97282061  0.57100021  0.79834613    -0.27400
C530        C  0.99552404  0.58747281  0.79703462     0.02200
C531        C  0.01735347  0.57994573  0.78084904     0.30300
C532        C  0.01666167  0.55611742  0.76704229    -0.19200
C533        C  0.99411646  0.53946945  0.76841155    -0.28600
C534        C  0.97191150  0.54728209  0.78407353     0.44300
C535        C  0.99682705  0.61198719  0.81317204     0.05500
O536        O  0.03943327  0.59591304  0.77811512    -0.57200
H537        H  0.03369312  0.55099285  0.75461719     0.18400
O538        O  0.94929906  0.53190809  0.78573803    -0.63900
H539        H  0.95589253  0.57632021  0.81081601     0.16900
C540        C  0.97635815  0.63097667  0.81215317     0.29100
C541        C  0.97828140  0.65374675  0.82769475    -0.24800
C542        C  0.99985207  0.65787705  0.84569819    -0.24000
C543        C  0.02154906  0.63964529  0.84458099     0.40600
C544        C  0.01934435  0.61674987  0.82927700    -0.26500
O545        O  0.95471801  0.62782347  0.79549240    -0.58400
H546        H  0.96202062  0.66787108  0.82661368     0.16200
O547        O  0.04555813  0.64407723  0.85721565    -0.59800
H548        H  0.03570223  0.60269108  0.82976768     0.14700
H549        H  0.95302545  0.51934008  0.80030125     0.46500
H550        H  0.93929020  0.62362735  0.80724291     0.41900
H551        H  0.05749891  0.65195467  0.84361302     0.45300
H552        H  0.03473859  0.60824139  0.76361062     0.36800
C553        C  0.01639951  0.32124945  0.80382840    -0.27400
C554        C  0.99481702  0.33870979  0.80674655     0.02200
C555        C  0.97270724  0.33119952  0.82236019     0.30300
C556        C  0.97273567  0.30709668  0.83545320    -0.19200
C557        C  0.99542244  0.29023415  0.83493039    -0.28600
C558        C  0.01664054  0.29711711  0.81720821     0.44300
C559        C  0.99493116  0.36443622  0.79295319     0.05500
O560        O  0.95083946  0.34742677  0.82516781    -0.57200
H561        H  0.95445927  0.30199173  0.84580337     0.18400
O562        O  0.03836271  0.28083763  0.81372442    -0.63900
H563        H  0.03313944  0.32626629  0.79099756     0.16900
C564        C  0.01603659  0.38259785  0.79653173     0.29100
C565        C  0.01509241  0.40710028  0.78384003    -0.24800
C566        C  0.99314990  0.41394085  0.76761077    -0.24000
C567        C  0.97202696  0.39565973  0.76418247     0.40600
C568        C  0.97318619  0.37117305  0.77657860    -0.26500
O569        O  0.03717452  0.37691508  0.81309735    -0.58400
H570        H  0.03160875  0.42073411  0.78663220     0.16200
O571        O  0.95085154  0.40084505  0.74749927    -0.59800
H572        H  0.95703857  0.35724024  0.77319976     0.14700
H573        H  0.03577308  0.27270060  0.79597813     0.46500
H574        H  0.05227585  0.37202257  0.80117933     0.41900
H575        H  0.93618130  0.40720400  0.75922743     0.45300
H576        H  0.95579823  0.35984465  0.83955642     0.36800
C577        C  0.89291832  0.89971324  0.29024274    -0.27400
C578        C  0.92068651  0.90357379  0.28727779     0.02200
C579        C  0.93065042  0.92927298  0.28565701     0.30300
C580        C  0.91305192  0.95059542  0.28592728    -0.19200
C581        C  0.88473171  0.94728416  0.28720121    -0.28600
C582        C  0.87509234  0.92116347  0.29069536     0.44300
C583        C  0.93970000  0.88111443  0.28659846     0.05500
O584        O  0.95786339  0.93385812  0.28441142    -0.57200
H585        H  0.92234884  0.96970271  0.28626631     0.18400
O586        O  0.84805620  0.91631375  0.29345828    -0.63900
H587        H  0.88497543  0.87998584  0.29205129     0.16900
C588        C  0.94289563  0.86457920  0.30859807     0.29100
C589        C  0.96436480  0.84674755  0.30946593    -0.24800
C590        C  0.98260479  0.84382488  0.28790543    -0.24000
C591        C  0.97816886  0.86005031  0.26530271     0.40600
C592        C  0.95713948  0.87834241  0.26495371    -0.26500
O593        O  0.92651319  0.86724610  0.33038538    -0.58400
H594        H  0.96719344  0.83666447  0.32804386     0.16200
O595        O  0.99544358  0.85930833  0.24400813    -0.59800
H596        H  0.95499415  0.89113940  0.24790912     0.14700
H597        H  0.84550544  0.91173497  0.31243713     0.46500
H598        H  0.91331630  0.85268909  0.32897329     0.41900
H599        H  0.98466228  0.85267863  0.22881854     0.45300
H600        H  0.96391683  0.93477152  0.30316776     0.36800
C601        C  0.91342885  0.02417375  0.25947444    -0.27400
C602        C  0.91481242  0.04223723  0.28046221     0.02200
C603        C  0.89597735  0.04031248  0.30119056     0.30300
C604        C  0.87860044  0.01870995  0.30251411    -0.19200
C605        C  0.88021712  0.99793882  0.28387327    -0.28600
C606        C  0.89570650  0.00272391  0.26059204     0.44300
C607        C  0.93678638  0.06205701  0.28150462     0.05500
O608        O  0.89428591  0.05969050  0.32012476    -0.57200
H609        H  0.86431217  0.01832028  0.31868544     0.18400
O610        O  0.89570621  0.98513561  0.23995149    -0.63900
H611        H  0.92698614  0.02598234  0.24270850     0.16900
C612        C  0.95422599  0.06306710  0.30343441     0.29100
C613        C  0.97441378  0.08207922  0.30472169    -0.24800
C614        C  0.97807283  0.10102633  0.28451181    -0.24000
C615        C  0.96203774  0.09803111  0.26111953     0.40600
C616        C  0.94143258  0.07903873  0.26015616    -0.26500
O617        O  0.95200015  0.04520753  0.32368038    -0.58400
H618        H  0.98719830  0.08231471  0.32211618     0.16200
O619        O  0.96764600  0.11153076  0.23822065    -0.59800
H620        H  0.92918564  0.07738991  0.24241081     0.14700
H621        H  0.88357859  0.99286414  0.22641943     0.46500
H622        H  0.96409978  0.03053039  0.31864455     0.41900
H623        H  0.95113123  0.12169529  0.23400181     0.45300
H624        H  0.90005763  0.05143041  0.33701985     0.36800
C625        C  0.64449961  0.95332349  0.17273421    -0.27400
C626        C  0.63964513  0.97396871  0.19039593     0.02200
C627        C  0.65953221  0.99328632  0.19381107     0.30300
C628        C  0.68349370  0.99204641  0.17911196    -0.19200
C629        C  0.68844943  0.97188264  0.16026769    -0.28600
C630        C  0.66849900  0.95166882  0.15825207     0.44300
C631        C  0.61419055  0.97421405  0.20593695     0.05500
O632        O  0.65632228  0.01271600  0.21247043    -0.57200
H633        H  0.69844271  0.00722216  0.18232864     0.18400
O634        O  0.67204039  0.92950487  0.14321379    -0.63900
H635        H  0.62961305  0.93791084  0.17043661     0.16900
C636        C  0.59650776  0.99582117  0.20525793     0.29100
C637        C  0.57277057  0.99554503  0.22035165    -0.24800
C638        C  0.56580183  0.97357198  0.23576925    -0.24000
C639        C  0.58320216  0.95160564  0.23573744     0.40600
C640        C  0.60707389  0.95209694  0.22095046    -0.26500
O641        O  0.60204900  0.01718988  0.18965840    -0.58400
H642        H  0.55971982  0.01257314  0.21990009     0.16200
O643        O  0.57747096  0.92971545  0.25053476    -0.59800
H644        H  0.62033141  0.93521139  0.22152465     0.14700
H645        H  0.67910358  0.91607016  0.15561102     0.46500
H646        H  0.59629478  0.01207132  0.17150192     0.41900
H647        H  0.58638772  0.93270173  0.26791276     0.45300
H648        H  0.65405064  0.02918425  0.20223847     0.36800
C649        C  0.75849052  0.95318395  0.20773029    -0.27400
C650        C  0.77758805  0.97338462  0.20885086     0.02200
C651        C  0.77579782  0.99411630  0.19073688     0.30300
C652        C  0.75621105  0.99373806  0.17083874    -0.19200
C653        C  0.73798777  0.97246488  0.16778324    -0.28600
C654        C  0.73843074  0.95286664  0.18795136     0.44300
C655        C  0.79965135  0.97259377  0.22866518     0.05500
O656        O  0.79381824  0.01453901  0.19173871    -0.57200
H657        H  0.75556658  0.01079362  0.15822841     0.18400
O658        O  0.71900951  0.93360471  0.18858902    -0.63900
H659        H  0.75906483  0.93761817  0.22235921     0.16900
C660        C  0.80226774  0.99215499  0.24813708     0.29100
C661        C  0.82390627  0.99153956  0.26587160    -0.24800
C662        C  0.84314466  0.97098051  0.26563449    -0.24000
C663        C  0.84124949  0.95238194  0.24447854     0.40600
C664        C  0.81925770  0.95295804  0.22695150    -0.26500
O665        O  0.78360531  0.01189706  0.25020465    -0.58400
H666        H  0.82507184  0.00679865  0.28084877     0.16200
O667        O  0.86091296  0.93410873  0.23975208    -0.59800
H668        H  0.81800505  0.93840548  0.21125783     0.14700
H669        H  0.72847614  0.91659917  0.19039530     0.46500
H670        H  0.76898600  0.00460417  0.26141688     0.41900
H671        H  0.87142250  0.94095762  0.22452034     0.45300
H672        H  0.78349460  0.02970741  0.19876366     0.36800
C673        C  0.06542921  0.08270775  0.31128186    -0.27400
C674        C  0.07195437  0.06911627  0.28800722     0.02200
C675        C  0.05577833  0.07246906  0.26542404     0.30300
C676        C  0.03340976  0.08916720  0.26643746    -0.19200
C677        C  0.02710066  0.10406992  0.28940405    -0.28600
C678        C  0.04303832  0.09933337  0.31253237     0.44300
C679        C  0.09246808  0.04804595  0.28907898     0.05500
O680        O  0.06057479  0.05813202  0.24281597    -0.57200
H681        H  0.02094930  0.09084603  0.24885671     0.18400
O682        O  0.03622566  0.10896714  0.33706535    -0.63900
H683        H  0.07699982  0.07926471  0.32920338     0.16900
C684        C  0.11490186  0.04742524  0.27208483     0.29100
C685        C  0.13207341  0.02548178  0.27203107    -0.24800
C686        C  0.12682183  0.00342093  0.28833262    -0.24000
C687        C  0.10579636  0.00594868  0.30741884     0.40600
C688        C  0.08870734  0.02764099  0.30716889    -0.26500
O689        O  0.12061787  0.06852033  0.25612327    -0.58400
H690        H  0.14941111  0.02607138  0.25909765     0.16200
O691        O  0.10032080  0.98620863  0.32511102    -0.59800
H692        H  0.07178779  0.02809944  0.32077709     0.14700
H693        H  0.02709154  0.09430286  0.34637000     0.46500
H694        H  0.11816854  0.06217472  0.23764601     0.41900
H695        H  0.10621569  0.99299919  0.34266494     0.45300
H696        H  0.06828704  0.07078782  0.22993731     0.36800
C697        C  0.11749410  0.90575687  0.27890261    -0.27400
C698        C  0.08968508  0.90949663  0.27639956     0.02200
C699        C  0.07973209  0.93501456  0.27291554     0.30300
C700        C  0.09714413  0.95649406  0.27425484    -0.19200
C701        C  0.12477822  0.95341451  0.28062610    -0.28600
C702        C  0.13503789  0.92734072  0.28052192     0.44300
C703        C  0.07079348  0.88724922  0.27983340     0.05500
O704        O  0.05271341  0.93926401  0.26914585    -0.57200
H705        H  0.08839283  0.97555897  0.27071147     0.18400
O706        O  0.16199029  0.92268428  0.28403989    -0.63900
H707        H  0.12552749  0.88609176  0.28091079     0.16900
C708        C  0.06965576  0.86625767  0.26179419     0.29100
C709        C  0.05022607  0.84647056  0.26493782    -0.24800
C710        C  0.03202487  0.84654637  0.28667852    -0.24000
C711        C  0.03394508  0.86785955  0.30495114     0.40600
C712        C  0.05296476  0.88775388  0.30130193    -0.26500
O713        O  0.08635525  0.86575088  0.24009397    -0.58400
H714        H  0.04905328  0.83183576  0.24946864     0.16200
O715        O  0.01668646  0.86975070  0.32619237    -0.59800
H716        H  0.05367959  0.90388657  0.31536339     0.14700
H717        H  0.16899429  0.91851038  0.26606406     0.46500
H718        H  0.10117202  0.85364487  0.24498237     0.41900
H719        H  0.02798701  0.86748000  0.34227847     0.45300
H720        H  0.04971083  0.93673275  0.24983341     0.36800
C721        C  0.41563097  0.97845073  0.19538382    -0.27400
C722        C  0.39054089  0.97626822  0.20826774     0.02200
C723        C  0.38999687  0.97368620  0.23613445     0.30300
C724        C  0.41412456  0.97317775  0.25057276    -0.19200
C725        C  0.43905001  0.97564369  0.23769713    -0.28600
C726        C  0.43976960  0.97826228  0.20993128     0.44300
C727        C  0.36511202  0.97770363  0.19259883     0.05500
O728        O  0.36597369  0.97229554  0.24951033    -0.57200
H729        H  0.41336781  0.97132822  0.27201549     0.18400
O730        O  0.46386208  0.98102379  0.19691328    -0.63900
H731        H  0.41648021  0.98037875  0.17397127     0.16900
C732        C  0.35977252  0.99943758  0.17636614     0.29100
C733        C  0.33583896  0.00074273  0.16174395    -0.24800
C734        C  0.31720225  0.97964506  0.16109374    -0.24000
C735        C  0.32211582  0.95847260  0.17888303     0.40600
C736        C  0.34576928  0.95768588  0.19426657    -0.26500
O737        O  0.37737348  0.02019914  0.17557132    -0.58400
H738        H  0.33213508  0.01886052  0.15133237     0.16200
O739        O  0.30392270  0.93830408  0.18119790    -0.59800
H740        H  0.34924437  0.94103892  0.20718103     0.14700
H741        H  0.47016728  0.96285750  0.19349689     0.46500
H742        H  0.38677517  0.01861522  0.15825647     0.41900
H743        H  0.31267205  0.92277430  0.17300916     0.45300
H744        H  0.36129200  0.99074358  0.25382043     0.36800
C745        C  0.24385977  0.99829283  0.20169539    -0.27400
C746        C  0.22492412  0.97795220  0.20148121     0.02200
C747        C  0.22740999  0.95783914  0.18258833     0.30300
C748        C  0.24858421  0.95826492  0.16416277    -0.19200
C749        C  0.26738820  0.97925565  0.16327983    -0.28600
C750        C  0.26478985  0.99915691  0.18300489     0.44300
C751        C  0.20417333  0.97680082  0.22263789     0.05500
O752        O  0.20967841  0.93717572  0.18246442    -0.57200
H753        H  0.25038603  0.94139645  0.15131109     0.18400
O754        O  0.28311946  0.01928769  0.18455521    -0.63900
H755        H  0.24252014  0.01358329  0.21663818     0.16900
C756        C  0.21179487  0.97201758  0.24896821     0.29100
C757        C  0.19249289  0.97185727  0.26916625    -0.24800
C758        C  0.16498590  0.97737572  0.26408156    -0.24000
C759        C  0.15736113  0.98043675  0.23699605     0.40600
C760        C  0.17687588  0.98051331  0.21673622    -0.26500
O761        O  0.23811790  0.96645366  0.25503534    -0.58400
H762        H  0.19952769  0.96666290  0.28874248     0.16200
O763        O  0.13088485  0.98412292  0.23016673    -0.59800
H764        H  0.17067755  0.98370160  0.19635702     0.14700
H765        H  0.27315621  0.03543057  0.17969611     0.46500
H766        H  0.24570700  0.98311538  0.26198829     0.41900
H767        H  0.12480696  0.96704988  0.22279096     0.45300
H768        H  0.21732334  0.92422428  0.19506906     0.36800
C769        C  0.36452081  0.99606146  0.40988290    -0.27400
C770        C  0.38170230  0.97446830  0.40643368     0.02200
C771        C  0.37846746  0.95230786  0.42283228     0.30300
C772        C  0.35790756  0.95179205  0.44188967    -0.19200
C773        C  0.34047431  0.97327236  0.44518171    -0.28600
C774        C  0.34403632  0.99560737  0.42899168     0.44300
C775        C  0.40295383  0.97539927  0.38572825     0.05500
O776        O  0.39619450  0.93168177  0.42128368    -0.57200
H777        H  0.35592239  0.93464073  0.45443591     0.18400
O778        O  0.32752844  0.01705207  0.43147830    -0.63900
H779        H  0.36678245  0.01325832  0.39744192     0.16900
C780        C  0.40490289  0.95563161  0.36622718     0.29100
C781        C  0.42547210  0.95653816  0.34730622    -0.24800
C782        C  0.44396183  0.97740476  0.34686963    -0.24000
C783        C  0.44156093  0.99762972  0.36588016     0.40600
C784        C  0.42118229  0.99649940  0.38512281    -0.26500
O785        O  0.38653122  0.93554203  0.36520377    -0.58400
H786        H  0.42665107  0.94103010  0.33258175     0.16200
O787        O  0.45926027  0.01830478  0.36617343    -0.59800
H788        H  0.41983305  0.01196997  0.39986965     0.14700
H789        H  0.31302136  0.01432721  0.41820647     0.46500
H790        H  0.37229947  0.94164901  0.35285154     0.41900
H791        H  0.47416392  0.01269290  0.37799449     0.45300
H792        H  0.38546621  0.91649314  0.41490859     0.36800
C793        C  0.19760272  0.99409477  0.40829171    -0.27400
C794        C  0.19572863  0.97165561  0.39213333     0.02200
C795        C  0.20888757  0.94851010  0.40023851     0.30300
C796        C  0.22377975  0.94818101  0.42392034    -0.19200
C797        C  0.22614677  0.97075794  0.43988753    -0.28600
C798        C  0.21255826  0.99381431  0.43192081     0.44300
C799        C  0.18149178  0.97316947  0.36611979     0.05500
O800        O  0.20905661  0.92674286  0.38412028    -0.57200
H801        H  0.23437064  0.93035612  0.42921386     0.18400
O802        O  0.21429315  0.01644818  0.44662247    -0.63900
H803        H  0.18764769  0.01208736  0.40238738     0.16900
C804        C  0.16160512  0.95486196  0.35885620     0.29100
C805        C  0.14968213  0.95600569  0.33361046    -0.24800
C806        C  0.15688741  0.97552104  0.31489621    -0.24000
C807        C  0.17528612  0.99518099  0.32354029     0.40600
C808        C  0.18780969  0.99343425  0.34840423    -0.26500
O809        O  0.15243057  0.93684075  0.37698713    -0.58400
H810        H  0.13386481  0.94203455  0.32952477     0.16200
O811        O  0.18200913  0.01575812  0.30727869    -0.59800
H812        H  0.20270029  0.00805422  0.35381849     0.14700
H813        H  0.19800883  0.01648369  0.45803531     0.46500
H814        H  0.15600467  0.91934761  0.36903581     0.41900
H815        H  0.17257290  0.03123501  0.31480460     0.45300
H816        H  0.19941395  0.91290021  0.39418758     0.36800
C817        C  0.09056188  0.03112026  0.73605494    -0.27400
C818        C  0.09008100  0.04790654  0.71407348     0.02200
C819        C  0.10911244  0.04431618  0.69374614     0.30300
C820        C  0.12604653  0.02236352  0.69406965    -0.19200
C821        C  0.12383037  0.00303558  0.71411818    -0.28600
C822        C  0.10770448  0.00933959  0.73659529     0.44300
C823        C  0.06843006  0.06780390  0.71177103     0.05500
O824        O  0.11149701  0.06243217  0.67370427    -0.57200
H825        H  0.14069431  0.02073465  0.67830123     0.18400
O826        O  0.10629544  0.99270553  0.75793950    -0.63900
H827        H  0.07656339  0.03405863  0.75230512     0.16900
C828        C  0.05115160  0.06777551  0.68970301     0.29100
C829        C  0.02989914  0.08557307  0.68837322    -0.24800
C830        C  0.02496257  0.10421557  0.70869860    -0.24000
C831        C  0.04147423  0.10275298  0.73184796     0.40600
C832        C  0.06312904  0.08503340  0.73282632    -0.26500
O833        O  0.05428929  0.04983244  0.66957403    -0.58400
H834        H  0.01717026  0.08497891  0.67094363     0.16200
O835        O  0.03531721  0.11628364  0.75463705    -0.59800
H836        H  0.07544061  0.08424355  0.75058468     0.14700
H837        H  0.11714326  0.00127226  0.77205229     0.46500
H838        H  0.04437685  0.03397928  0.67549759     0.41900
H839        H  0.05122912  0.12747098  0.75851518     0.45300
H840        H  0.10655859  0.05303932  0.65712039     0.36800
C841        C  0.05988291  0.87275156  0.69436187    -0.27400
C842        C  0.06596139  0.88492378  0.71845496     0.02200
C843        C  0.05183992  0.87761117  0.74136639     0.30300
C844        C  0.03211939  0.85798567  0.73996438    -0.19200
C845        C  0.02647766  0.84432579  0.71601650    -0.28600
C846        C  0.04007338  0.85321819  0.69265557     0.44300
C847        C  0.08428758  0.90775638  0.71835608     0.05500
O848        O  0.05647373  0.89019636  0.76504010    -0.57200
H849        H  0.02109139  0.85326229  0.75788484     0.18400
O850        O  0.03206888  0.84574141  0.66766589    -0.63900
H851        H  0.06955129  0.87954148  0.67632285     0.16900
C852        C  0.11232389  0.90469024  0.71807803     0.29100
C853        C  0.12904586  0.92676524  0.71594127    -0.24800
C854        C  0.11845855  0.95254758  0.71433363    -0.24000
C855        C  0.08984069  0.95474348  0.71181423     0.40600
C856        C  0.07333425  0.93272045  0.71502130    -0.26500
O857        O  0.12357907  0.88019504  0.72003423    -0.58400
H858        H  0.15060830  0.92374900  0.71600941     0.16200
O859        O  0.07743861  0.97763652  0.70446667    -0.59800
H860        H  0.05168191  0.93498566  0.71344261     0.14700
H861        H  0.04813531  0.83777822  0.65914036     0.46500
H862        H  0.12640042  0.87434659  0.70143600     0.41900
H863        H  0.07384363  0.97585883  0.68517217     0.45300
H864        H  0.07100042  0.87998822  0.77373417     0.36800
C865        C  0.19263914  0.96227698  0.65737761    -0.27400
C866        C  0.17775171  0.96708422  0.63431488     0.02200
C867        C  0.15009723  0.97224926  0.63654412     0.30300
C868        C  0.13807280  0.97372347  0.66170953    -0.19200
C869        C  0.15336609  0.97174514  0.68539020    -0.28600
C870        C  0.18079503  0.96383988  0.68256957     0.44300
C871        C  0.19161314  0.96629230  0.60821097     0.05500
O872        O  0.13454132  0.97519572  0.61421755    -0.57200
H873        H  0.11669979  0.97768226  0.66273433     0.18400
O874        O  0.19629664  0.95663354  0.70386845    -0.63900
H875        H  0.21377825  0.95718069  0.65586745     0.16900
C876        C  0.19314657  0.98874510  0.59201206     0.29100
C877        C  0.20908032  0.98845370  0.56902142    -0.24800
C878        C  0.22387446  0.96598720  0.56182904    -0.24000
C879        C  0.22161301  0.94325063  0.57772110     0.40600
C880        C  0.20570934  0.94361560  0.60069162    -0.26500
O881        O  0.18014902  0.01145309  0.59910774    -0.58400
H882        H  0.21046582  0.00616285  0.55721688     0.16200
O883        O  0.23626046  0.92111025  0.57209093    -0.59800
H884        H  0.20494550  0.92628769  0.61312648     0.14700
H885        H  0.19594548  0.93717128  0.70405657     0.46500
H886        H  0.19322382  0.02126688  0.61023781     0.41900
H887        H  0.22399564  0.90980447  0.56152487     0.45300
H888        H  0.12980167  0.99410506  0.61361724     0.36800
C889        C  0.19799626  0.99810727  0.75747799    -0.27400
C890        C  0.19828751  0.97908405  0.77755086     0.02200
C891        C  0.17753068  0.96023491  0.77803077     0.30300
C892        C  0.15775701  0.96002061  0.75818056    -0.19200
C893        C  0.15891637  0.97738070  0.73627787    -0.28600
C894        C  0.17894425  0.99734055  0.73703978     0.44300
C895        C  0.22081223  0.97869689  0.79718715     0.05500
O896        O  0.17657785  0.94146651  0.79750800    -0.57200
H897        H  0.14166259  0.94596962  0.76035437     0.18400
O898        O  0.18119435  0.01524870  0.71683549    -0.63900
H899        H  0.21305593  0.01349514  0.75722757     0.16900
C900        C  0.24768199  0.98168151  0.78886253     0.29100
C901        C  0.26857062  0.98185723  0.80739775    -0.24800
C902        C  0.26404628  0.97702480  0.83475978    -0.24000
C903        C  0.23673916  0.97470094  0.84300451     0.40600
C904        C  0.21565474  0.97574112  0.82440921    -0.26500
O905        O  0.25396339  0.98449518  0.76247041    -0.58400
H906        H  0.28835297  0.98613892  0.79968150     0.16200
O907        O  0.23033488  0.97225813  0.86938950    -0.59800
H908        H  0.19509150  0.97446997  0.83147087     0.14700
H909        H  0.17524432  0.03222845  0.72453939     0.46500
H910        H  0.25616876  0.96636372  0.75562657     0.41900
H911        H  0.22123732  0.95501297  0.87120634     0.45300
H912        H  0.18860440  0.92721128  0.79122102     0.36800
C913        C  0.58563127  0.95661957  0.38419445    -0.27400
C914        C  0.60463569  0.97702759  0.38457160     0.02200
C915        C  0.60272195  0.99718041  0.36551786     0.30300
C916        C  0.58178283  0.99686714  0.34679727    -0.19200
C917        C  0.56270657  0.97647917  0.34649817    -0.28600
C918        C  0.56481900  0.95623193  0.36544379     0.44300
C919        C  0.62650818  0.97663845  0.40472738     0.05500
O920        O  0.62207922  0.01638109  0.36412276    -0.57200
H921        H  0.58083893  0.01234388  0.33208993     0.18400
O922        O  0.54652236  0.93606019  0.36599935    -0.63900
H923        H  0.58678597  0.94098308  0.39871390     0.16900
C924        C  0.63109311  0.99814661  0.42180045     0.29100
C925        C  0.65170975  0.99708114  0.44076669    -0.24800
C926        C  0.66763398  0.97444333  0.44366715    -0.24000
C927        C  0.66263774  0.95272529  0.42686249     0.40600
C928        C  0.64231326  0.95399543  0.40763424    -0.26500
O929        O  0.61510489  0.02005994  0.42062668    -0.58400
H930        H  0.65480714  0.01385927  0.45367102     0.16200
O931        O  0.67743060  0.93009634  0.42898255    -0.59800
H932        H  0.63893051  0.93718719  0.39482803     0.14700
H933        H  0.53293806  0.94132675  0.37945004     0.46500
H934        H  0.59870310  0.01553566  0.43089787     0.41900
H935        H  0.69294003  0.93252091  0.41680457     0.45300
H936        H  0.61276669  0.03301068  0.36870954     0.36800
C937        C  0.80299501  0.99524757  0.40227653    -0.27400
C938        C  0.81529191  0.97177363  0.39432471     0.02200
C939        C  0.81243998  0.94931179  0.41021928     0.30300
C940        C  0.79658147  0.95025187  0.43328559    -0.19200
C941        C  0.78323947  0.97349475  0.44088067    -0.28600
C942        C  0.78710063  0.99629039  0.42528871     0.44300
C943        C  0.82814556  0.97016640  0.36783685     0.05500
O944        O  0.82446140  0.92615423  0.40293728    -0.57200
H945        H  0.79416111  0.93250446  0.44485880     0.18400
O946        O  0.77465206  0.01948510  0.43168248    -0.63900
H947        H  0.80490943  0.01261474  0.39001572     0.16900
C948        C  0.81221728  0.96618966  0.34521685     0.29100
C949        C  0.82400753  0.96539530  0.32001945    -0.24800
C950        C  0.85193455  0.96983566  0.31632000    -0.24000
C951        C  0.86802980  0.97187915  0.33970293     0.40600
C952        C  0.85605537  0.97247455  0.36499226    -0.26500
O953        O  0.78494279  0.96260806  0.34761223    -0.58400
H954        H  0.81080378  0.96095054  0.30358805     0.16200
O955        O  0.89545950  0.97463957  0.33797947    -0.59800
H956        H  0.86860361  0.97502046  0.38241835     0.14700
H957        H  0.75731555  0.01918712  0.42188211     0.46500
H958        H  0.77701175  0.98034467  0.34547791     0.41900
H959        H  0.90293418  0.95731070  0.34306707     0.45300
H960        H  0.81111386  0.91712103  0.39145407     0.36800
C961        C  0.92437716  0.92662136  0.73741067    -0.27400
C962        C  0.91605234  0.90222753  0.72782201     0.02200
C963        C  0.88944806  0.89913578  0.71898881     0.30300
C964        C  0.87224868  0.92094802  0.71778375    -0.19200
C965        C  0.88186338  0.94658867  0.72301037    -0.28600
C966        C  0.90739050  0.94848898  0.73598081     0.44300
C967        C  0.93616376  0.88104660  0.72488572     0.05500
O968        O  0.88035493  0.87505864  0.71069017    -0.57200
H969        H  0.85200427  0.91803435  0.71046150     0.08800
O970        O  0.91627036  0.97148953  0.74719466    -0.63900
H971        H  0.94448734  0.92891107  0.74546972     0.16900
C972        C  0.95085907  0.87883839  0.70125416     0.29100
C973        C  0.97150851  0.86036344  0.69909369    -0.24800
C974        C  0.97775188  0.84276841  0.71995324    -0.24000
C975        C  0.96336891  0.84610392  0.74433305     0.40600
C976        C  0.94273494  0.86493417  0.74635651    -0.26500
O977        O  0.94539626  0.89500860  0.68016710    -0.58400
H978        H  0.98268849  0.85959529  0.68066063     0.16200
O979        O  0.97085727  0.83328436  0.76710147    -0.59800
H980        H  0.93238033  0.86754531  0.76513208     0.14700
H981        H  0.91542999  0.96868919  0.76667196     0.46500
H982        H  0.95747470  0.91035181  0.68251008     0.41900
H983        H  0.95512226  0.82238463  0.77224739     0.45300
H984        H  0.88425036  0.87442397  0.69136899     0.36800
C985        C  0.81999568  0.98949772  0.65506715    -0.27400
C986        C  0.82623998  0.96990704  0.63655977     0.02200
C987        C  0.84575819  0.95108956  0.64308468     0.30300
C988        C  0.85815993  0.95153881  0.66811720    -0.19200
C989        C  0.85088135  0.97015187  0.68782643    -0.28600
C990        C  0.83223997  0.98999881  0.68017715     0.44300
C991        C  0.81197901  0.96918073  0.61062765     0.05500
O992        O  0.85375831  0.93286352  0.62458895    -0.57200
H993        H  0.87418575  0.93762456  0.67128930     0.18400
O994        O  0.82500135  0.00949360  0.69761119    -0.63900
H995        H  0.80520423  0.00435717  0.65016584     0.16900
C996        C  0.79537163  0.94779415  0.60382572     0.29100
C997        C  0.78080012  0.94804047  0.58000909    -0.24800
C998        C  0.78205762  0.96967075  0.56273980    -0.24000
C999        C  0.79936361  0.99074521  0.56919059     0.40600
C1000       C  0.81397178  0.99046639  0.59306032    -0.26500
O1001       O  0.79244868  0.92696315  0.62080791    -0.58400
H1002       H  0.76754148  0.93169402  0.57563974     0.16200
O1003       O  0.80199238  0.01182142  0.55248171    -0.59800
H1004       H  0.82680039  0.00699108  0.59797084     0.14700
H1005       H  0.83360016  0.02569373  0.69073037     0.46500
H1006       H  0.77790476  0.93220333  0.63324737     0.41900
H1007       H  0.81604578  0.00658761  0.53949578     0.45300
H1008       H  0.84615616  0.91592373  0.63073509     0.36800
C1009       C  0.92174704  0.01805771  0.69654354    -0.27400
C1010       C  0.91711278  0.04009729  0.71242201     0.02200
C1011       C  0.89407739  0.04083876  0.72861115     0.30300
C1012       C  0.87636253  0.01933153  0.72919152    -0.19200
C1013       C  0.88177445  0.99613375  0.71458960    -0.28600
C1014       C  0.90434277  0.99655937  0.69711156     0.44300
C1015       C  0.93638158  0.06227254  0.71103338     0.05500
O1016       O  0.88813431  0.06294948  0.74306922    -0.57200
H1017       H  0.85823683  0.02134950  0.74085224     0.18400
O1018       O  0.91053223  0.97527556  0.68152412    -0.63900
H1019       H  0.93928649  0.01733696  0.68373456     0.16900
C1020       C  0.95132573  0.07018886  0.73330355     0.29100
C1021       C  0.97129898  0.08938797  0.73067806    -0.24800
C1022       C  0.97622456  0.10227535  0.70622011    -0.24000
C1023       C  0.96177372  0.09302837  0.68356327     0.40600
C1024       C  0.94205966  0.07354752  0.68634941    -0.26500
O1025       O  0.94715705  0.05875022  0.75760477    -0.58400
H1026       H  0.98296019  0.09458732  0.74809896     0.16200
O1027       O  0.96856776  0.10040672  0.65823007    -0.59800
H1028       H  0.93162487  0.06656976  0.66878302     0.14700
H1029       H  0.90683425  0.98088028  0.66301512     0.46500
H1030       H  0.95874696  0.04290034  0.75768005     0.41900
H1031       H  0.95224902  0.10879943  0.65068374     0.45300
H1032       H  0.89168037  0.05819796  0.76184452     0.36800
C1033       C  0.79684190  0.96183059  0.75597367    -0.27400
C1034       C  0.80373142  0.97149904  0.78115901     0.02200
C1035       C  0.83052164  0.97942762  0.78554969     0.30300
C1036       C  0.84941030  0.97830688  0.76480167    -0.19200
C1037       C  0.84206727  0.97113761  0.73857449    -0.28600
C1038       C  0.81545301  0.96116248  0.73506403     0.44300
C1039       C  0.78251871  0.97284928  0.80225030     0.05500
O1040       O  0.83846557  0.98883396  0.80986304    -0.57200
H1041       H  0.86985354  0.98414004  0.76916541     0.18400
O1042       O  0.80723891  0.94995056  0.71162429    -0.63900
H1043       H  0.77676011  0.95423717  0.75246555     0.16900
C1044       C  0.75687155  0.98295596  0.79633764     0.29100
C1045       C  0.73598994  0.98118745  0.81482317    -0.24800
C1046       C  0.73968271  0.96981128  0.84024701    -0.24000
C1047       C  0.76663117  0.96338344  0.84730685     0.40600
C1048       C  0.78726607  0.96360569  0.82810169    -0.26500
O1049       O  0.75194514  0.99496710  0.77245352    -0.58400
H1050       H  0.71692538  0.98966690  0.80905743     0.16200
O1051       O  0.77306126  0.95632556  0.87278488    -0.59800
H1052       H  0.80701636  0.95640669  0.83355113     0.14700
H1053       H  0.80605760  0.93084099  0.71514601     0.46500
H1054       H  0.75761340  0.01347210  0.77500289     0.41900
H1055       H  0.78276017  0.97165564  0.88032070     0.45300
H1056       H  0.83505543  0.00800008  0.80917424     0.36800
C1057       C  0.60137065  0.94969374  0.63599877    -0.27400
C1058       C  0.60534750  0.97155890  0.61952509     0.02200
C1059       C  0.58828732  0.99344156  0.62234120     0.30300
C1060       C  0.56769845  0.99328272  0.64140385    -0.19200
C1061       C  0.56371223  0.97151689  0.65809984    -0.28600
C1062       C  0.58084747  0.94955140  0.65520394     0.44300
C1063       C  0.62712884  0.97128440  0.59925187     0.05500
O1064       O  0.59093831  0.01466090  0.60579361    -0.57200
H1065       H  0.55467801  0.01027566  0.64296369     0.18400
O1066       O  0.57849751  0.92829529  0.67172531    -0.63900
H1067       H  0.61447810  0.93278340  0.63418079     0.16900
C1068       C  0.64807188  0.98996092  0.59981461     0.29100
C1069       C  0.66778905  0.99001778  0.57986624    -0.24800
C1070       C  0.66742625  0.97119885  0.55941290    -0.24000
C1071       C  0.64664317  0.95228951  0.55907628     0.40600
C1072       C  0.62680991  0.95237388  0.57893731    -0.26500
O1073       O  0.64959566  0.00810355  0.61992988    -0.58400
H1074       H  0.68369889  0.00456471  0.58065414     0.16200
O1075       O  0.64512868  0.93401987  0.53907876    -0.59800
H1076       H  0.61080280  0.93792504  0.57819499     0.14700
H1077       H  0.56773355  0.91527077  0.66161378     0.46500
H1078       H  0.65864710  0.99888312  0.63479164     0.41900
H1079       H  0.63408919  0.94238636  0.52502093     0.45300
H1080       H  0.59855422  0.02887504  0.61700077     0.36800
C1081       C  0.41877130  0.94974336  0.62310374    -0.27400
C1082       C  0.40232012  0.97182066  0.61934600     0.02200
C1083       C  0.40669781  0.99428285  0.63518403     0.30300
C1084       C  0.42749883  0.99451079  0.65406778    -0.19200
C1085       C  0.44419981  0.97251635  0.65765222    -0.28600
C1086       C  0.43957945  0.94997107  0.64191864     0.44300
C1087       C  0.38074305  0.97110987  0.59882196     0.05500
O1088       O  0.38988882  0.01558553  0.63323681    -0.57200
H1089       H  0.43026444  0.01187290  0.66623773     0.18400
O1090       O  0.45542403  0.92808555  0.64451017    -0.63900
H1091       H  0.41573227  0.93232894  0.61107180     0.16900
C1092       C  0.37924503  0.99045095  0.57888596     0.29100
C1093       C  0.35845405  0.98976875  0.56013215    -0.24800
C1094       C  0.33941917  0.96937979  0.56010825    -0.24000
C1095       C  0.34141161  0.94948590  0.57946078     0.40600
C1096       C  0.36186629  0.95052743  0.59866850    -0.26500
O1097       O  0.39839085  0.00977892  0.57711153    -0.58400
H1098       H  0.35763700  0.00492308  0.54507658     0.16200
O1099       O  0.32332908  0.92912765  0.58001955    -0.59800
H1100       H  0.36286418  0.93531604  0.61365172     0.14700
H1101       H  0.47025017  0.93049353  0.63152359     0.46500
H1102       H  0.41371570  0.00160216  0.56754065     0.41900
H1103       H  0.30783781  0.93572839  0.59053308     0.45300
H1104       H  0.40119099  0.03006079  0.62620791     0.36800
C1105       C  0.65696495  0.95508919  0.81153627    -0.27400
C1106       C  0.63831382  0.97483573  0.81753793     0.02200
C1107       C  0.64420124  0.99260410  0.83810921     0.30300
C1108       C  0.66863335  0.99076680  0.85200404    -0.19200
C1109       C  0.68821413  0.97153275  0.84553997    -0.28600
C1110       C  0.68135207  0.95309535  0.82539100     0.44300
C1111       C  0.61255685  0.97613073  0.80248715     0.05500
O1112       O  0.62550404  0.01095052  0.84577192    -0.57200
H1113       H  0.67138511  0.00401163  0.86854425     0.18400
O1114       O  0.69891564  0.93345853  0.81843271    -0.63900
H1115       H  0.65263309  0.94109664  0.79586077     0.16900
C1116       C  0.60550128  0.99849857  0.78763255     0.29100
C1117       C  0.58190892  0.99855117  0.77228009    -0.24800
C1118       C  0.56512401  0.97630061  0.77101336    -0.24000
C1119       C  0.57197862  0.95411877  0.78642540     0.40600
C1120       C  0.59545419  0.95420300  0.80193120    -0.26500
O1121       O  0.62200965  0.02008767  0.78722723    -0.58400
H1122       H  0.57732512  0.01576908  0.76052584     0.16200
O1123       O  0.55574547  0.93232796  0.78678472    -0.59800
H1124       H  0.60048577  0.93691474  0.81341480     0.14700
H1125       H  0.69141522  0.91724803  0.82642348     0.46500
H1126       H  0.63452540  0.01706859  0.77217472     0.41900
H1127       H  0.56430589  0.91970548  0.77436236     0.45300
H1128       H  0.63308139  0.02813689  0.84032961     0.36800
C1129       C  0.40152618  0.00130162  0.78669822    -0.27400
C1130       C  0.39274900  0.97844411  0.79962863     0.02200
C1131       C  0.40877872  0.95561982  0.79783921     0.30300
C1132       C  0.43240184  0.95567346  0.78259504    -0.19200
C1133       C  0.44097663  0.97842567  0.76925735    -0.28600
C1134       C  0.42540784  0.00152811  0.77186135     0.44300
C1135       C  0.36655672  0.97841880  0.81419697     0.05500
O1136       O  0.40152147  0.93303675  0.81080505    -0.57200
H1137       H  0.44396944  0.93770501  0.78110515     0.18400
O1138       O  0.43290132  0.02437295  0.75951974    -0.63900
H1139       H  0.38944619  0.01898689  0.78748935     0.16900
C1140       C  0.35974937  0.99852346  0.83222850     0.29100
C1141       C  0.33478621  0.99832433  0.84524220    -0.24800
C1142       C  0.31561589  0.97824377  0.84069072    -0.24000
C1143       C  0.32333476  0.95748710  0.82325835     0.40600
C1144       C  0.34803896  0.95811048  0.80989767    -0.26500
O1145       O  0.37760939  0.01833525  0.83776526    -0.58400
H1146       H  0.33135786  0.01359328  0.85970989     0.16200
O1147       O  0.30619950  0.93691043  0.81822983    -0.59800
H1148       H  0.35260148  0.94258065  0.79586933     0.14700
H1149       H  0.42374339  0.02398818  0.74201080     0.46500
H1150       H  0.38887668  0.01161772  0.85253035     0.41900
H1151       H  0.31419892  0.92159213  0.82745466     0.45300
H1152       H  0.40754870  0.93556843  0.82941676     0.36800
C1153       C  0.31063989  0.92809910  0.90929690    -0.27400
C1154       C  0.29165521  0.90795373  0.90715209     0.02200
C1155       C  0.27324539  0.90832623  0.88594052     0.30300
C1156       C  0.27271303  0.92965807  0.86838891    -0.19200
C1157       C  0.28996676  0.95146919  0.87201058    -0.28600
C1158       C  0.31041865  0.94927050  0.89174091     0.44300
C1159       C  0.29009385  0.88789656  0.92838430     0.05500
O1160       O  0.25531470  0.88812094  0.88249924    -0.57200
H1161       H  0.25851712  0.92890934  0.85216423     0.18400
O1162       O  0.32856048  0.96918486  0.89588806    -0.63900
H1163       H  0.32498920  0.92814885  0.92551058     0.16900
C1164       C  0.31282500  0.87337920  0.93598407     0.29100
C1165       C  0.31146096  0.85634533  0.95771874    -0.24800
C1166       C  0.28738248  0.85295352  0.97247160    -0.24000
C1167       C  0.26497208  0.86875553  0.96515623     0.40600
C1168       C  0.26630151  0.88535082  0.94304679    -0.26500
O1169       O  0.33655005  0.87566463  0.92216980    -0.58400
H1170       H  0.33002361  0.84693208  0.96346279     0.16200
O1171       O  0.24133370  0.86762429  0.97921548    -0.59800
H1172       H  0.24885634  0.89707785  0.93793208     0.14700
H1173       H  0.34603229  0.96235102  0.88931104     0.46500
H1174       H  0.34881271  0.88569546  0.93397327     0.41900
H1175       H  0.24005931  0.88463671  0.98874560     0.45300
H1176       H  0.26472714  0.87532232  0.87089615     0.36800
C1177       C  0.30974640  0.91987698  0.09745121    -0.27400
C1178       C  0.28669719  0.91785805  0.08149874     0.02200
C1179       C  0.26552853  0.93568262  0.08585358     0.30300
C1180       C  0.26753999  0.95463394  0.10597429    -0.19200
C1181       C  0.29048229  0.95671946  0.12266294    -0.28600
C1182       C  0.31235433  0.93946031  0.11689655     0.44300
C1183       C  0.28558379  0.89765091  0.05992181     0.05500
O1184       O  0.24292943  0.93522048  0.07019149    -0.57200
H1185       H  0.25090209  0.96815166  0.10848159     0.18400
O1186       O  0.33704065  0.94199383  0.12877126    -0.63900
H1187       H  0.32640943  0.90650015  0.09438665     0.16900
C1188       C  0.30720549  0.89435508  0.04219592     0.29100
C1189       C  0.30646336  0.87448695  0.02299119    -0.24800
C1190       C  0.28448677  0.85689933  0.02061767    -0.24000
C1191       C  0.26182293  0.86169757  0.03735338     0.40600
C1192       C  0.26290484  0.88145850  0.05695094    -0.26500
O1193       O  0.32876476  0.91123556  0.04271416    -0.58400
H1194       H  0.32365847  0.87252032  0.00990261     0.16200
O1195       O  0.23768632  0.84915879  0.03344105    -0.59800
H1196       H  0.24568204  0.88417410  0.06987582     0.14700
H1197       H  0.34825539  0.95198205  0.11601072     0.46500
H1198       H  0.34426833  0.90060643  0.04888744     0.41900
H1199       H  0.23349866  0.84012186  0.05039401     0.45300
H1200       H  0.24715533  0.94681675  0.05494445     0.36800
C1201       C  0.05005931  0.69521413  0.08109877    -0.27400
C1202       C  0.07516625  0.68903141  0.09197715     0.02200
C1203       C  0.07743239  0.68597673  0.11956489     0.30300
C1204       C  0.05419686  0.68642715  0.13545313    -0.19200
C1205       C  0.02812906  0.68899499  0.12418943    -0.28600
C1206       C  0.02686762  0.69607625  0.09681143     0.44300
C1207       C  0.09806212  0.68440882  0.07367206     0.05500
O1208       O  0.10198750  0.68116543  0.13101909    -0.57200
H1209       H  0.05634583  0.68263834  0.15651484     0.18400
O1210       O  0.00349071  0.70408096  0.08484346    -0.63900
H1211       H  0.04835546  0.69915039  0.06000333     0.16900
C1212       C  0.09618752  0.66455224  0.05441482     0.29100
C1213       C  0.11506497  0.66320326  0.03394663    -0.24800
C1214       C  0.13532362  0.68254412  0.03100197    -0.24000
C1215       C  0.13982732  0.69947745  0.05315762     0.40600
C1216       C  0.12072998  0.70079124  0.07379238    -0.26500
O1217       O  0.07525033  0.64695061  0.05487992    -0.58400
H1218       H  0.11197674  0.64861452  0.01855855     0.16200
O1219       O  0.16247259  0.71473766  0.05519793    -0.59800
H1220       H  0.12320224  0.71523576  0.08943264     0.14700
H1221       H  0.00496145  0.72342039  0.08325001     0.46500
H1222       H  0.06259012  0.65293501  0.04090120     0.41900
H1223       H  0.17400382  0.70594355  0.06858108     0.45300
H1224       H  0.10377145  0.66177834  0.13119226     0.36800
C1225       C  0.11397320  0.68966264  0.93433186    -0.27400
C1226       C  0.08695816  0.69298948  0.94166692     0.02200
C1227       C  0.08074784  0.69767328  0.96837475     0.30300
C1228       C  0.10098004  0.69666255  0.98761748    -0.19200
C1229       C  0.12784797  0.68943470  0.98117960    -0.28600
C1230       C  0.13438551  0.68861206  0.95368445     0.44300
C1231       C  0.06517343  0.69082225  0.92164155     0.05500
O1232       O  0.05474679  0.70282673  0.97598332    -0.57200
H1233       H  0.09504096  0.70147972  0.00767828     0.18400
O1234       O  0.16043815  0.68488272  0.94554346    -0.63900
H1235       H  0.11917862  0.68707944  0.91358712     0.16900
C1236       C  0.06081955  0.71057425  0.90282201     0.29100
C1237       C  0.03989372  0.70815144  0.88427724    -0.24800
C1238       C  0.02311895  0.68556857  0.88329925    -0.24000
C1239       C  0.02694187  0.66649901  0.90362442     0.40600
C1240       C  0.04782386  0.66918815  0.92222588    -0.26500
O1241       O  0.07598264  0.73308051  0.90334966    -0.58400
H1242       H  0.03656569  0.72473522  0.87138655     0.16200
O1243       O  0.00997503  0.64531349  0.90572123    -0.59800
H1244       H  0.05046065  0.65423113  0.93728591     0.14700
H1245       H  0.16697191  0.70256094  0.94041562     0.46500
H1246       H  0.09111910  0.72975488  0.89095534     0.41900
H1247       H  0.02121504  0.62956837  0.90233183     0.45300
H1248       H  0.05298656  0.72219964  0.97515311     0.36800
C1249       C  0.19819676  0.56189101  0.01562710    -0.27400
C1250       C  0.20075345  0.57977683  0.99462253     0.02200
C1251       C  0.21638123  0.57284591  0.97236352     0.30300
C1252       C  0.22972540  0.54858880  0.97164363    -0.19200
C1253       C  0.22786769  0.53091384  0.99298995    -0.28600
C1254       C  0.21140987  0.53758051  0.01488319     0.44300
C1255       C  0.18762501  0.60588908  0.99650914     0.05500
O1256       O  0.22021209  0.59042199  0.95208765    -0.57200
H1257       H  0.24251827  0.54414014  0.95478820     0.18400
O1258       O  0.20844894  0.52072739  0.03589736    -0.63900
H1259       H  0.18603129  0.56690599  0.03277650     0.16900
C1260       C  0.16711944  0.61317380  0.97885482     0.29100
C1261       C  0.15466283  0.63775171  0.98127364    -0.24800
C1262       C  0.16319703  0.65648303  0.00037015    -0.24000
C1263       C  0.18310865  0.64817775  0.01889461     0.40600
C1264       C  0.19520540  0.62338387  0.01663708    -0.26500
O1265       O  0.15813613  0.59578694  0.95996960    -0.58400
H1266       H  0.13778394  0.64137834  0.96833824     0.16200
O1267       O  0.19175160  0.66470820  0.03867864    -0.59800
H1268       H  0.21078311  0.61786029  0.03062939     0.14700
H1269       H  0.19236683  0.50999237  0.03154271     0.46500
H1270       H  0.16422336  0.60305869  0.94271468     0.41900
H1271       H  0.18418217  0.65742564  0.05534234     0.45300
H1272       H  0.21055808  0.58290910  0.93659078     0.36800
C1273       C  0.21452995  0.72701455  0.99378751    -0.27400
C1274       C  0.20459509  0.75197657  0.99970122     0.02200
C1275       C  0.17697121  0.75518706  0.00432277     0.30300
C1276       C  0.15989649  0.73324435  0.00442039    -0.19200
C1277       C  0.16988977  0.70740575  0.00080425    -0.28600
C1278       C  0.19754353  0.70503556  0.99331823     0.44300
C1279       C  0.22334469  0.77455176  0.99973796     0.05500
O1280       O  0.16646242  0.77970715  0.00869917    -0.57200
H1281       H  0.13870982  0.73631909  0.00849159     0.18400
O1282       O  0.20833919  0.68186960  0.98443219    -0.63900
H1283       H  0.23563501  0.72461773  0.98883069     0.16900
C1284       C  0.23870744  0.78063048  0.02228050     0.29100
C1285       C  0.25827076  0.80041780  0.02112426    -0.24800
C1286       C  0.26273137  0.81532216  0.99780524    -0.24000
C1287       C  0.24785432  0.80776057  0.97467908     0.40600
C1288       C  0.22803690  0.78818441  0.97617284    -0.26500
O1289       O  0.23480988  0.76723583  0.04557535    -0.58400
H1290       H  0.27004053  0.80435276  0.03879565     0.16200
O1291       O  0.25326069  0.81791062  0.95004911    -0.59800
H1292       H  0.21707247  0.78275264  0.95836719     0.14700
H1293       H  0.21039242  0.68390606  0.96494730     0.46500
H1294       H  0.24726475  0.75204706  0.04466820     0.41900
H1295       H  0.26353012  0.80411241  0.94049811     0.45300
H1296       H  0.16505072  0.78136625  0.02828515     0.36800
C1297       C  0.29156851  0.09032966  0.06694371    -0.27400
C1298       C  0.28896831  0.06335789  0.06256604     0.02200
C1299       C  0.28623235  0.05397370  0.03653392     0.30300
C1300       C  0.28622816  0.07142382  0.01516347    -0.19200
C1301       C  0.28759705  0.09898444  0.01899964    -0.28600
C1302       C  0.29099132  0.10806213  0.04562539     0.44300
C1303       C  0.29030103  0.04471209  0.08499126     0.05500
O1304       O  0.28317790  0.02759460  0.03179777    -0.57200
H1305       H  0.28592052  0.06267403  0.99566002     0.18400
O1306       O  0.29396566  0.13432862  0.05098835    -0.63900
H1307       H  0.29422808  0.09769146  0.08698582     0.16900
C1308       C  0.31268364  0.02830975  0.08797094     0.29100
C1309       C  0.31231423  0.00829443  0.10681917    -0.24800
C1310       C  0.29043073  0.00469345  0.12454183    -0.24000
C1311       C  0.26768877  0.02157228  0.12113076     0.40600
C1312       C  0.26809547  0.04138509  0.10170073    -0.26500
O1313       O  0.33475819  0.03109496  0.07182847    -0.58400
H1314       H  0.32949211  0.99526149  0.10760402     0.16200
O1315       O  0.24381030  0.01721200  0.13410517    -0.59800
H1316       H  0.25033568  0.05340053  0.09877462     0.14700
H1317       H  0.27719442  0.13976184  0.06017994     0.46500
H1318       H  0.34558507  0.04531066  0.08006952     0.41900
H1319       H  0.23991634  0.03353384  0.14419715     0.45300
H1320       H  0.30131165  0.02122929  0.02664201     0.36800
C1321       C  0.27318233  0.02251057  0.91655977    -0.27400
C1322       C  0.27579339  0.04751040  0.90552722     0.02200
C1323       C  0.27967501  0.04966863  0.87793080     0.30300
C1324       C  0.28251059  0.02692169  0.86227390    -0.19200
C1325       C  0.28218186  0.00145899  0.87360598    -0.28600
C1326       C  0.27478238  0.99987046  0.90101855     0.44300
C1327       C  0.27526547  0.07055812  0.92377564     0.05500
O1328       O  0.28097209  0.07384021  0.86606928    -0.57200
H1329       H  0.28598211  0.02917409  0.84115165     0.18400
O1330       O  0.26826453  0.97661452  0.91313273    -0.63900
H1331       H  0.26971055  0.02031664  0.93768924     0.16900
C1332       C  0.25522128  0.07278580  0.94339140     0.29100
C1333       C  0.25874582  0.09009161  0.96471053    -0.24800
C1334       C  0.28277468  0.10467590  0.96794735    -0.24000
C1335       C  0.30014397  0.10600603  0.94545246     0.40600
C1336       C  0.29679353  0.08837521  0.92418508    -0.26500
O1337       O  0.23241872  0.05754223  0.94221318    -0.58400
H1338       H  0.24356340  0.09030299  0.98011743     0.16200
O1339       O  0.32026406  0.12431934  0.94358914    -0.59800
H1340       H  0.31175355  0.08794715  0.90852434     0.14700
H1341       H  0.24868789  0.97762249  0.91717145     0.46500
H1342       H  0.23340511  0.04559168  0.95771810     0.41900
H1343       H  0.31235444  0.13906288  0.93340381     0.45300
H1344       H  0.26197872  0.07889918  0.86283716     0.36800
C1345       C  0.06257616  0.23837646  0.10610529    -0.27400
C1346       C  0.06683978  0.25874556  0.08800341     0.02200
C1347       C  0.04867122  0.27980387  0.08736989     0.30300
C1348       C  0.02746754  0.28089675  0.10554101    -0.19200
C1349       C  0.02385275  0.26158445  0.12542019    -0.28600
C1350       C  0.04126370  0.23927476  0.12444855     0.44300
C1351       C  0.08909140  0.25715290  0.06846887     0.05500
O1352       O  0.05065902  0.29872791  0.06807683    -0.57200
H1353       H  0.01388316  0.29748982  0.10446371     0.18400
O1354       O  0.03635376  0.21710722  0.13909904    -0.63900
H1355       H  0.07563339  0.22133494  0.10572894     0.16900
C1356       C  0.10785502  0.27763109  0.06601174     0.29100
C1357       C  0.12598626  0.27778451  0.04473977    -0.24800
C1358       C  0.12505850  0.25821583  0.02477644    -0.24000
C1359       C  0.10880899  0.23577602  0.02983563     0.40600
C1360       C  0.09070102  0.23567496  0.05114980    -0.26500
O1361       O  0.10872962  0.29742854  0.08456069    -0.58400
H1362       H  0.14031807  0.29371186  0.04396071     0.16200
O1363       O  0.10844373  0.21502116  0.01243487    -0.59800
H1364       H  0.07689651  0.21933631  0.05330621     0.14700
H1365       H  0.05269191  0.21429506  0.15012167     0.46500
H1366       H  0.10440669  0.31379832  0.07479756     0.41900
H1367       H  0.11971949  0.20131345  0.02087752     0.45300
H1368       H  0.05456313  0.31535025  0.07764209     0.36800
C1369       C  0.11011113  0.26214277  0.92632511    -0.27400
C1370       C  0.08243757  0.26306751  0.93149605     0.02200
C1371       C  0.07352505  0.26468809  0.95780651     0.30300
C1372       C  0.09195072  0.26364882  0.97862552    -0.19200
C1373       C  0.12004279  0.26067675  0.97416900    -0.28600
C1374       C  0.12883162  0.26174312  0.94725426     0.44300
C1375       C  0.06258409  0.26271010  0.90963602     0.05500
O1376       O  0.04666961  0.26784840  0.96342861    -0.57200
H1377       H  0.08365302  0.26639172  0.99823948     0.18400
O1378       O  0.15573804  0.26206037  0.94113542    -0.63900
H1379       H  0.11724958  0.26181887  0.90598465     0.16900
C1380       C  0.06005305  0.28396119  0.89222956     0.29100
C1381       C  0.03890695  0.28460631  0.87385255    -0.24800
C1382       C  0.02066864  0.26332157  0.87098710    -0.24000
C1383       C  0.02375594  0.24189212  0.88888655     0.40600
C1384       C  0.04428752  0.24193591  0.90793193    -0.26500
O1385       O  0.07712064  0.30505723  0.89420812    -0.58400
H1386       H  0.03680135  0.30248402  0.86266700     0.16200
O1387       O  0.00602664  0.22123066  0.88862483    -0.59800
H1388       H  0.04574185  0.22568750  0.92173025     0.14700
H1389       H  0.15976302  0.28047813  0.93615742     0.46500
H1390       H  0.09060901  0.30247208  0.87989953     0.41900
H1391       H  0.01669337  0.20550713  0.88352772     0.45300
H1392       H  0.04345509  0.28703751  0.96247991     0.36800
C1393       C  0.19383182  0.31693760  0.98883099    -0.27400
C1394       C  0.17753311  0.33913485  0.99141946     0.02200
C1395       C  0.14975239  0.33604136  0.99476366     0.30300
C1396       C  0.13873293  0.31082750  0.99624083    -0.19200
C1397       C  0.15500708  0.28793327  0.99530493    -0.28600
C1398       C  0.18302187  0.29163285  0.99011718     0.44300
C1399       C  0.19021204  0.36529456  0.99030253     0.05500
O1400       O  0.13313923  0.35753506  0.99578936    -0.57200
H1401       H  0.11715346  0.30913593  0.99883320     0.18400
O1402       O  0.20026351  0.27116076  0.98540938    -0.63900
H1403       H  0.21528044  0.31925139  0.98553466     0.16900
C1404       C  0.19139207  0.38144294  0.01295799     0.29100
C1405       C  0.20745786  0.40403228  0.01277788    -0.24800
C1406       C  0.22248473  0.41083951  0.99012704    -0.24000
C1407       C  0.21988614  0.39535805  0.96691665     0.40600
C1408       C  0.20403989  0.37269938  0.96727102    -0.26500
O1409       O  0.17797474  0.37463090  0.03574840    -0.58400
H1410       H  0.20887151  0.41572227  0.03072877     0.16200
O1411       O  0.23420969  0.40102780  0.94434326    -0.59800
H1412       H  0.20329764  0.36030352  0.94975588     0.14700
H1413       H  0.20254822  0.27042956  0.96585703     0.46500
H1414       H  0.19104838  0.36417445  0.04620997     0.41900
H1415       H  0.22163761  0.41116430  0.93299588     0.45300
H1416       H  0.12752618  0.35905183  0.01464244     0.36800
C1417       C  0.22115398  0.15615373  0.01465259    -0.27400
C1418       C  0.22148501  0.17667096  0.99630434     0.02200
C1419       C  0.24207855  0.17772122  0.97729633     0.30300
C1420       C  0.26259716  0.15891290  0.97751200    -0.19200
C1421       C  0.26357446  0.13873830  0.99682096    -0.28600
C1422       C  0.24116875  0.13677816  0.01450092     0.44300
C1423       C  0.20000207  0.19673686  0.99706227     0.05500
O1424       O  0.24284674  0.19764294  0.95901503    -0.57200
H1425       H  0.27837250  0.16043213  0.96274712     0.18400
O1426       O  0.23754199  0.11566817  0.03095153    -0.63900
H1427       H  0.20470662  0.15467210  0.02873127     0.16900
C1428       C  0.18042318  0.19811463  0.97703306     0.29100
C1429       C  0.16058873  0.21764337  0.97787061    -0.24800
C1430       C  0.16061029  0.23725115  0.99785127    -0.24000
C1431       C  0.17942034  0.23424178  0.01903311     0.40600
C1432       C  0.19882329  0.21432365  0.01834242    -0.26500
O1433       O  0.18053157  0.18042722  0.95645054    -0.58400
H1434       H  0.14533463  0.21701212  0.96265082     0.16200
O1435       O  0.18016779  0.25181467  0.03970895    -0.59800
H1436       H  0.21349433  0.21303192  0.03422953     0.14700
H1437       H  0.22425591  0.10425157  0.02184801     0.46500
H1438       H  0.16986756  0.16525829  0.96288647     0.41900
H1439       H  0.17256194  0.24227880  0.05514983     0.45300
H1440       H  0.23558230  0.18991904  0.94239025     0.36800
C1441       C  0.36115411  0.37367066  0.02008489    -0.27400
C1442       C  0.37662689  0.36805853  0.99744524     0.02200
C1443       C  0.37178366  0.38233221  0.97397286     0.30300
C1444       C  0.35207894  0.40204002  0.97350571    -0.19200
C1445       C  0.33697120  0.40817561  0.99634136    -0.28600
C1446       C  0.34151361  0.39344144  0.01970883     0.44300
C1447       C  0.39816475  0.34775629  0.99861300     0.05500
O1448       O  0.38662284  0.37757085  0.95148829    -0.57200
H1449       H  0.34903692  0.41291683  0.95528177     0.18400
O1450       O  0.32698732  0.39818020  0.04239336    -0.63900
H1451       H  0.36426115  0.36260752  0.03818587     0.16900
C1452       C  0.41880661  0.34914195  0.01780130     0.29100
C1453       C  0.43952433  0.33042312  0.01791058    -0.24800
C1454       C  0.44016590  0.31014545  0.99897825    -0.24000
C1455       C  0.41923778  0.30845674  0.98010944     0.40600
C1456       C  0.39843048  0.32707682  0.98011467    -0.26500
O1457       O  0.41962032  0.36948105  0.03569169    -0.58400
H1458       H  0.45546885  0.33211947  0.03251209     0.16200
O1459       O  0.41833538  0.28805670  0.96229489    -0.59800
H1460       H  0.38240487  0.32534825  0.96560513     0.14700
H1461       H  0.31193559  0.38537871  0.04193964     0.46500
H1462       H  0.41342685  0.36188819  0.05275871     0.41900
H1463       H  0.42489989  0.29548667  0.94528338     0.45300
H1464       H  0.40300035  0.38857010  0.95338078     0.36800
C1465       C  0.41037115  0.16938532  0.98195926    -0.27400
C1466       C  0.39389507  0.16965032  0.00459836     0.02200
C1467       C  0.40230678  0.18386944  0.02714315     0.30300
C1468       C  0.42618511  0.19857636  0.02629960    -0.19200
C1469       C  0.44183156  0.19977518  0.00300608    -0.28600
C1470       C  0.43399382  0.18444753  0.98091843     0.44300
C1471       C  0.36710622  0.15667428  0.00354669     0.05500
O1472       O  0.38740116  0.18327443  0.05011943    -0.57200
H1473       H  0.43184034  0.20990279  0.04366841     0.18400
O1474       O  0.44919243  0.18405202  0.95816908    -0.63900
H1475       H  0.40428870  0.15831694  0.96455723     0.16900
C1476       C  0.34341568  0.17137099  0.00686888     0.29100
C1477       C  0.31822468  0.15940575  0.00416796    -0.24800
C1478       C  0.31556273  0.13253597  0.99729072    -0.24000
C1479       C  0.33977502  0.11769228  0.99515262     0.40600
C1480       C  0.36503169  0.12987198  0.99766388    -0.26500
O1481       O  0.34457832  0.19769553  0.01255666    -0.58400
H1482       H  0.30092788  0.17152581  0.00836894     0.16200
O1483       O  0.33895214  0.09131831  0.98961643    -0.59800
H1484       H  0.38312734  0.11825880  0.99509301     0.14700
H1485       H  0.44009909  0.19636320  0.94584591     0.46500
H1486       H  0.34692772  0.20647972  0.99514244     0.41900
H1487       H  0.34371412  0.08246549  0.00650964     0.45300
H1488       H  0.38036492  0.20133897  0.05253147     0.36800
C1489       C  0.90282548  0.23786212  0.94228450    -0.27400
C1490       C  0.90437720  0.25945301  0.92522463     0.02200
C1491       C  0.88570342  0.27991846  0.92816105     0.30300
C1492       C  0.86782493  0.27987921  0.94969187    -0.19200
C1493       C  0.86970847  0.26072306  0.96998543    -0.28600
C1494       C  0.88528549  0.23800907  0.96404558     0.44300
C1495       C  0.92651502  0.26088358  0.90553756     0.05500
O1496       O  0.88474618  0.29996125  0.90998952    -0.57200
H1497       H  0.85323783  0.29555740  0.95054700     0.18400
O1498       O  0.88594999  0.21708438  0.98108321    -0.63900
H1499       H  0.91639282  0.22140253  0.93965899     0.16900
C1500       C  0.94557631  0.28120798  0.90669987     0.29100
C1501       C  0.96749393  0.28125439  0.88932752    -0.24800
C1502       C  0.97106603  0.26152931  0.86974413    -0.24000
C1503       C  0.95244336  0.24011817  0.87005050     0.40600
C1504       C  0.93032137  0.24041101  0.88739060    -0.26500
O1505       O  0.94334951  0.30089510  0.92520821    -0.58400
H1506       H  0.98182104  0.29724222  0.89084335     0.16200
O1507       O  0.95600664  0.21806669  0.85479528    -0.59800
H1508       H  0.91637975  0.22403421  0.88715457     0.14700
H1509       H  0.87454894  0.20344944  0.97259618     0.46500
H1510       H  0.95302775  0.29436584  0.94111217     0.41900
H1511       H  0.96153849  0.20400158  0.86724127     0.45300
H1512       H  0.89095779  0.31584568  0.91964949     0.36800
C1513       C  0.88747599  0.26848540  0.06829471    -0.27400
C1514       C  0.91483310  0.26469749  0.06308297     0.02200
C1515       C  0.92352315  0.26192805  0.03677695     0.30300
C1516       C  0.90493131  0.26276394  0.01602905    -0.19200
C1517       C  0.87679724  0.26430856  0.02078877    -0.28600
C1518       C  0.86854103  0.26815043  0.04763945     0.44300
C1519       C  0.93450263  0.26454719  0.08503769     0.05500
O1520       O  0.95034653  0.25867557  0.03104813    -0.57200
H1521       H  0.91332915  0.26261927  0.99631790     0.18400
O1522       O  0.84191462  0.27167477  0.05391976    -0.63900
H1523       H  0.88067484  0.27125706  0.08856535     0.16900
C1524       C  0.93968451  0.28739772  0.09967413     0.29100
C1525       C  0.95978475  0.28749150  0.11910026    -0.24800
C1526       C  0.97489394  0.26462859  0.12506148    -0.24000
C1527       C  0.96959609  0.24177182  0.10956825     0.40600
C1528       C  0.94953764  0.24192109  0.09003526    -0.26500
O1529       O  0.92656162  0.31034083  0.09372714    -0.58400
H1530       H  0.96419447  0.30618948  0.12821913     0.16200
O1531       O  0.98465871  0.21941098  0.11280657    -0.59800
H1532       H  0.94601778  0.22434375  0.07836947     0.14700
H1533       H  0.83635464  0.25566177  0.06364636     0.46500
H1534       H  0.91187463  0.31173216  0.10699899     0.41900
H1535       H  0.97198682  0.20574628  0.11920677     0.45300
H1536       H  0.95812430  0.27659916  0.03126024     0.36800
C1537       C  0.74383432  0.02070706  0.09208597    -0.27400
C1538       C  0.72257309  0.03842715  0.08906209     0.02200
C1539       C  0.69997919  0.03620919  0.10569176     0.30300
C1540       C  0.69808907  0.01565907  0.12394814    -0.19200
C1541       C  0.71908548  0.99709925  0.12706261    -0.28600
C1542       C  0.74221657  0.00016182  0.11053128     0.44300
C1543       C  0.72242263  0.05720861  0.06657839     0.05500
O1544       O  0.67897134  0.05355791  0.10349927    -0.57200
H1545       H  0.67932008  0.01408493  0.13456649     0.18400
O1546       O  0.76330880  0.98281329  0.11211183    -0.63900
H1547       H  0.76128279  0.02203244  0.07922735     0.16900
C1548       C  0.74241293  0.07645689  0.06334418     0.29100
C1549       C  0.74073428  0.09442423  0.04227660    -0.24800
C1550       C  0.71892571  0.09395514  0.02409705    -0.24000
C1551       C  0.70010869  0.07298207  0.02662370     0.40600
C1552       C  0.70184890  0.05530709  0.04774103    -0.26500
O1553       O  0.76379160  0.07777881  0.08054732    -0.58400
H1554       H  0.75709746  0.10820141  0.04008056     0.16200
O1555       O  0.67968387  0.06973704  0.00850867    -0.59800
H1556       H  0.68689706  0.03988361  0.04939677     0.14700
H1557       H  0.76218705  0.97192526  0.09578350     0.46500
H1558       H  0.75822216  0.09042589  0.09450352     0.41900
H1559       H  0.66268158  0.07286089  0.01836064     0.45300
H1560       H  0.68401918  0.06867346  0.11490755     0.36800
C1561       C  0.73071236  0.01169129  0.92350540    -0.27400
C1562       C  0.72580132  0.03688265  0.91375111     0.02200
C1563       C  0.72159243  0.04027551  0.88641289     0.30300
C1564       C  0.72023270  0.01828465  0.86965047    -0.19200
C1565       C  0.72153840  0.99239714  0.87979957    -0.28600
C1566       C  0.72959235  0.98970205  0.90690055     0.44300
C1567       C  0.72434464  0.05896915  0.93286982     0.05500
O1568       O  0.71907856  0.06499213  0.87591094    -0.57200
H1569       H  0.71642679  0.02148318  0.84873164     0.18400
O1570       O  0.73647890  0.96592926  0.91772991    -0.63900
H1571       H  0.73513156  0.00891486  0.94440422     0.16900
C1572       C  0.70030772  0.07307412  0.93645332     0.29100
C1573       C  0.69787709  0.09106315  0.95738520    -0.24800
C1574       C  0.71923959  0.09550390  0.97550845    -0.24000
C1575       C  0.74332003  0.08077286  0.97162648     0.40600
C1576       C  0.74576320  0.06325779  0.95035109    -0.26500
O1577       O  0.67842085  0.06833871  0.92051183    -0.58400
H1578       H  0.67841495  0.10009958  0.96001893     0.16200
O1579       O  0.76481980  0.08357259  0.98854453    -0.59800
H1580       H  0.76426390  0.05219381  0.94806639     0.14700
H1581       H  0.75589907  0.96711108  0.92203590     0.46500
H1582       H  0.66953609  0.05265819  0.92822350     0.41900
H1583       H  0.76573408  0.06693296  0.99871457     0.45300
H1584       H  0.69992512  0.06658782  0.87056821     0.36800
C1585       C  0.64545498  0.14213601  0.02009355    -0.27400
C1586       C  0.63945956  0.15779503  0.99804877     0.02200
C1587       C  0.65886672  0.16008552  0.97781440     0.30300
C1588       C  0.68314877  0.14602521  0.97945835    -0.19200
C1589       C  0.68894803  0.12902028  0.00095279    -0.28600
C1590       C  0.67004392  0.12886455  0.02234667     0.44300
C1591       C  0.61393561  0.17331787  0.99797459     0.05500
O1592       O  0.65500605  0.17717982  0.95712393    -0.57200
H1593       H  0.69760584  0.14819649  0.96349328     0.18400
O1594       O  0.67536421  0.11691884  0.04616249    -0.63900
H1595       H  0.63121328  0.14081764  0.03635613     0.16900
C1596       C  0.59614980  0.17344518  0.97610485     0.29100
C1597       C  0.57263956  0.18880184  0.97684167    -0.24800
C1598       C  0.56583791  0.20351715  0.99958835    -0.24000
C1599       C  0.58309069  0.20236386  0.02185418     0.40600
C1600       C  0.60692383  0.18775788  0.02074710    -0.26500
O1601       O  0.60129254  0.15838038  0.95407598    -0.58400
H1602       H  0.55958728  0.18901938  0.95959650     0.16200
O1603       O  0.57756063  0.21636530  0.04450384    -0.59800
H1604       H  0.62019759  0.18795725  0.03783266     0.14700
H1605       H  0.67876617  0.13131899  0.05899620     0.46500
H1606       H  0.59247585  0.14127376  0.95764249     0.41900
H1607       H  0.56852174  0.20372710  0.05653781     0.45300
H1608       H  0.65341974  0.16604521  0.94101263     0.36800
C1609       C  0.76035328  0.17370657  0.02117409    -0.27400
C1610       C  0.77673128  0.17742149  0.99884135     0.02200
C1611       C  0.77357700  0.16071119  0.97690530     0.30300
C1612       C  0.75448440  0.14052675  0.97756082    -0.19200
C1613       C  0.73840614  0.13562468  0.00034673    -0.28600
C1614       C  0.74115384  0.15343847  0.02196588     0.44300
C1615       C  0.79691098  0.19893790  0.99856391     0.05500
O1616       O  0.78968373  0.16349070  0.95491212    -0.57200
H1617       H  0.75220513  0.12927531  0.95951417     0.18400
O1618       O  0.72452278  0.15168581  0.04366713    -0.63900
H1619       H  0.76216441  0.18689331  0.03800187     0.16900
C1620       C  0.79606740  0.21885449  0.97933706     0.29100
C1621       C  0.81547649  0.23876478  0.97940223    -0.24800
C1622       C  0.83564427  0.24034587  0.99923557    -0.24000
C1623       C  0.83712545  0.21908583  0.01767055     0.40600
C1624       C  0.81749572  0.19926467  0.01750360    -0.26500
O1625       O  0.77599319  0.21937889  0.96063774    -0.58400
H1626       H  0.81414648  0.25388324  0.96434865     0.16200
O1627       O  0.85796410  0.21647534  0.03532219    -0.59800
H1628       H  0.81883501  0.18352967  0.03190825     0.14700
H1629       H  0.73640383  0.14815861  0.05908894     0.46500
H1630       H  0.76085586  0.22885035  0.96923032     0.41900
H1631       H  0.86950317  0.20224047  0.02816484     0.45300
H1632       H  0.77764606  0.16992374  0.94061258     0.36800
C1633       C  0.64104491  0.37536197  0.97788717    -0.27400
C1634       C  0.61961841  0.37593819  0.99608472     0.02200
C1635       C  0.61820844  0.39669360  0.01463789     0.30300
C1636       C  0.63802047  0.41626955  0.01486573    -0.19200
C1637       C  0.65912041  0.41596436  0.99631314    -0.28600
C1638       C  0.66052359  0.39527201  0.97771568     0.44300
C1639       C  0.59920229  0.35456575  0.99602164     0.05500
O1640       O  0.59737462  0.39819053  0.03247386    -0.57200
H1641       H  0.63655808  0.43205869  0.02925262     0.18400
O1642       O  0.68157057  0.39363647  0.96013606    -0.63900
H1643       H  0.64289645  0.35923266  0.96395124     0.16900
C1644       C  0.58531337  0.34740837  0.97267867     0.29100
C1645       C  0.56577852  0.32748919  0.97339587    -0.24800
C1646       C  0.55979460  0.31428654  0.99719738    -0.24000
C1647       C  0.57418250  0.32123715  0.02043364     0.40600
C1648       C  0.59355090  0.34115921  0.01967126    -0.26500
O1649       O  0.58979600  0.36061051  0.94935994    -0.58400
H1650       H  0.55505522  0.32264271  0.95529588     0.16200
O1651       O  0.56954514  0.30878066  0.04413108    -0.59800
H1652       H  0.60438300  0.34604975  0.03770490     0.14700
H1653       H  0.67454737  0.40093109  0.94324809     0.46500
H1654       H  0.60056753  0.34844933  0.93820844     0.41900
H1655       H  0.58204340  0.29359860  0.04423867     0.45300
H1656       H  0.58272527  0.40743925  0.02292094     0.36800
C1657       C  0.79622983  0.37991503  0.02483108    -0.27400
C1658       C  0.80537339  0.36882032  0.00099331     0.02200
C1659       C  0.79957710  0.38144487  0.97687140     0.30300
C1660       C  0.78364698  0.40418068  0.97671136    -0.19200
C1661       C  0.77346814  0.41491013  0.00051040    -0.28600
C1662       C  0.78069252  0.40287826  0.02480809     0.44300
C1663       C  0.81833610  0.34265318  0.00134180     0.05500
O1664       O  0.80786921  0.37070263  0.95323769    -0.57200
H1665       H  0.77858551  0.41291879  0.95775886     0.18400
O1666       O  0.77171471  0.41258665  0.04863934    -0.63900
H1667       H  0.80059831  0.37031272  0.04353418     0.16900
C1668       C  0.84586857  0.33939874  0.99625960     0.29100
C1669       C  0.85723481  0.31422619  0.99676913    -0.24800
C1670       C  0.84127494  0.29133457  0.00010377    -0.24000
C1671       C  0.81368385  0.29530550  0.00710251     0.40600
C1672       C  0.80266605  0.32064133  0.00723473    -0.26500
O1673       O  0.86189082  0.36073094  0.99110308    -0.58400
H1674       H  0.87866045  0.31240328  0.99311165     0.16200
O1675       O  0.79725366  0.27508207  0.01487028    -0.59800
H1676       H  0.78154785  0.32311933  0.01209052     0.14700
H1677       H  0.78595119  0.42492588  0.05461189     0.46500
H1678       H  0.86520745  0.36021893  0.97165763     0.41900
H1679       H  0.79391854  0.27775539  0.03411203     0.45300
H1680       H  0.82393002  0.38102876  0.94797115     0.36800
C1681       C  0.69088961  0.91917796  0.91311004    -0.27400
C1682       C  0.71018802  0.89928074  0.91170351     0.02200
C1683       C  0.72857184  0.89931263  0.89045945     0.30300
C1684       C  0.72889724  0.92036123  0.87239148    -0.19200
C1685       C  0.71236632  0.94269300  0.87628395    -0.28600
C1686       C  0.69179754  0.94065189  0.89595185     0.44300
C1687       C  0.71206942  0.88043871  0.93411925     0.05500
O1688       O  0.74705014  0.87948570  0.88780386    -0.57200
H1689       H  0.74284497  0.91929008  0.85598698     0.18400
O1690       O  0.67334877  0.96037799  0.89966333    -0.63900
H1691       H  0.67588229  0.91889423  0.92875596     0.16900
C1692       C  0.71493236  0.89004994  0.96012119     0.29100
C1693       C  0.71388073  0.87302750  0.98168398    -0.24800
C1694       C  0.70948588  0.84572056  0.97842081    -0.24000
C1695       C  0.70900589  0.83594256  0.95188370     0.40600
C1696       C  0.71004747  0.85327654  0.93012826    -0.26500
O1697       O  0.71855575  0.91637501  0.96477460    -0.58400
H1698       H  0.71681686  0.88190816  0.00093458     0.16200
O1699       O  0.70721610  0.80944597  0.94708991    -0.59800
H1700       H  0.70848878  0.84550397  0.91014072     0.14700
H1701       H  0.67807116  0.96880629  0.91683249     0.46500
H1702       H  0.73831350  0.91920267  0.96378271     0.41900
H1703       H  0.68957077  0.80664647  0.93829731     0.45300
H1704       H  0.76278920  0.88512624  0.89852870     0.36800
C1705       C  0.68861898  0.87793732  0.05751915    -0.27400
C1706       C  0.71356183  0.88274690  0.06967478     0.02200
C1707       C  0.73496520  0.86544786  0.06358764     0.30300
C1708       C  0.73123715  0.84490453  0.04534098    -0.19200
C1709       C  0.70791910  0.84340805  0.02928052    -0.28600
C1710       C  0.68606552  0.86007083  0.03661868     0.44300
C1711       C  0.71648778  0.90597801  0.08799145     0.05500
O1712       O  0.76016081  0.86897310  0.07412904    -0.57200
H1713       H  0.74775381  0.83146115  0.04301679     0.18400
O1714       O  0.66221406  0.85996436  0.02288621    -0.63900
H1715       H  0.67099759  0.88911369  0.06313601     0.16900
C1716       C  0.70208890  0.92941020  0.08336211     0.29100
C1717       C  0.70219659  0.94948710  0.10229543    -0.24800
C1718       C  0.71855012  0.94860485  0.12534951    -0.24000
C1719       C  0.73628815  0.92676297  0.12758169     0.40600
C1720       C  0.73360647  0.90519073  0.11022660    -0.26500
O1721       O  0.68883642  0.93352355  0.05976227    -0.58400
H1722       H  0.68922626  0.96619352  0.09872767     0.16200
O1723       O  0.75770597  0.92691889  0.14481025    -0.59800
H1724       H  0.74541040  0.88788654  0.11438535     0.14700
H1725       H  0.66336144  0.87495086  0.01040229     0.46500
H1726       H  0.66957514  0.93600689  0.06443023     0.41900
H1727       H  0.75741959  0.90990639  0.15431456     0.45300
H1728       H  0.76926448  0.88148310  0.06202380     0.36800
C1729       C  0.93484998  0.66486857  0.90520920    -0.27400
C1730       C  0.93201519  0.68735985  0.92074110     0.02200
C1731       C  0.94996750  0.70829730  0.91721076     0.30300
C1732       C  0.97036693  0.70656599  0.89810391    -0.19200
C1733       C  0.97369633  0.68399362  0.88189669    -0.28600
C1734       C  0.95560953  0.66255697  0.88650872     0.44300
C1735       C  0.91244021  0.68719426  0.94283281     0.05500
O1736       O  0.94829386  0.73022342  0.93297918    -0.57200
H1737       H  0.98409475  0.72297799  0.89609285     0.18400
O1738       O  0.95969039  0.63810684  0.87579908    -0.63900
H1739       H  0.92185978  0.64814167  0.90884632     0.16900
C1740       C  0.88459701  0.68646590  0.93823519     0.29100
C1741       C  0.86669840  0.68537872  0.95971330    -0.24800
C1742       C  0.87588029  0.68533125  0.98636786    -0.24000
C1743       C  0.90428146  0.68251289  0.99021289     0.40600
C1744       C  0.92200307  0.68485834  0.96876366    -0.26500
O1745       O  0.87467106  0.68663239  0.91281219    -0.58400
H1746       H  0.84533497  0.68528502  0.95552489     0.16200
O1747       O  0.91524003  0.67566140  0.01422161    -0.59800
H1748       H  0.94349002  0.68338028  0.97229179     0.14700
H1749       H  0.94325669  0.63404616  0.86536135     0.46500
H1750       H  0.87338226  0.70544269  0.90793838     0.41900
H1751       H  0.91917037  0.65662151  0.01290141     0.45300
H1752       H  0.93613581  0.74235123  0.92333515     0.36800
C1753       C  0.80087043  0.63074631  0.99455333    -0.27400
C1754       C  0.81538576  0.60819574  0.00108487     0.02200
C1755       C  0.84254686  0.61051549  0.00819108     0.30300
C1756       C  0.85459969  0.63534544  0.00953687    -0.19200
C1757       C  0.83960343  0.65868972  0.00571696    -0.28600
C1758       C  0.81268103  0.65568657  0.99613620     0.44300
C1759       C  0.80181676  0.58237157  0.00024306     0.05500
O1760       O  0.85756430  0.58857473  0.01357728    -0.57200
H1761       H  0.87562783  0.63642964  0.01500308     0.18400
O1762       O  0.79779761  0.67648538  0.98710164    -0.63900
H1763       H  0.78015873  0.62899788  0.98797211     0.16900
C1764       C  0.79424466  0.56963746  0.02382955     0.29100
C1765       C  0.77947612  0.54623800  0.02271311    -0.24800
C1766       C  0.77182083  0.53517920  0.99817216    -0.24000
C1767       C  0.78029645  0.54768050  0.97451275     0.40600
C1768       C  0.79492302  0.57118364  0.97573419    -0.26500
O1769       O  0.80053503  0.58031204  0.04809411    -0.58400
H1770       H  0.77333078  0.53718698  0.04120241     0.16200
O1771       O  0.77357503  0.53776384  0.95004850    -0.59800
H1772       H  0.80060952  0.58093446  0.95745764     0.14700
H1773       H  0.79918460  0.67580952  0.96745660     0.46500
H1774       H  0.78635769  0.59360547  0.05153722     0.41900
H1775       H  0.78876424  0.52610412  0.94507451     0.45300
H1776       H  0.85753573  0.58704063  0.03321959     0.36800
C1777       C  0.94510115  0.67090072  0.09304005    -0.27400
C1778       C  0.92684021  0.69098114  0.09855964     0.02200
C1779       C  0.93208009  0.70834430  0.11954480     0.30300
C1780       C  0.95582034  0.70575440  0.13443549    -0.19200
C1781       C  0.97577995  0.68696313  0.12761877    -0.28600
C1782       C  0.96908340  0.66858089  0.10727807     0.44300
C1783       C  0.90326872  0.69378986  0.08095459     0.05500
O1784       O  0.91384901  0.72754255  0.12600150    -0.57200
H1785       H  0.95813730  0.71872280  0.15123347     0.18400
O1786       O  0.98677308  0.64925774  0.09982883    -0.63900
H1787       H  0.94113207  0.65731301  0.07689561     0.16900
C1788       C  0.90247951  0.71368981  0.06177704     0.29100
C1789       C  0.88442220  0.71179627  0.04053998    -0.24800
C1790       C  0.86816716  0.68918673  0.03689034    -0.24000
C1791       C  0.86604159  0.67157891  0.05876272     0.40600
C1792       C  0.88399208  0.67380649  0.08017985    -0.26500
O1793       O  0.92084980  0.73380857  0.06228767    -0.58400
H1794       H  0.88536165  0.72662181  0.02516402     0.16200
O1795       O  0.84581875  0.65323135  0.06031821    -0.59800
H1796       H  0.88359452  0.65918474  0.09578841     0.14700
H1797       H  0.97834137  0.63252988  0.10555345     0.46500
H1798       H  0.93664549  0.72720987  0.05220217     0.41900
H1799       H  0.85465227  0.63613022  0.06394143     0.45300
H1800       H  0.92096992  0.74382447  0.11780768     0.36800
C1801       C  0.79437376  0.73191929  0.02385934    -0.27400
C1802       C  0.79583744  0.75027008  0.00324761     0.02200
C1803       C  0.81812156  0.74955289  0.98602972     0.30300
C1804       C  0.83766923  0.72986684  0.98875262    -0.19200
C1805       C  0.83477186  0.70941854  0.00760085    -0.28600
C1806       C  0.81346215  0.71191679  0.02629905     0.44300
C1807       C  0.77359707  0.76956186  0.99998463     0.05500
O1808       O  0.82076184  0.76765841  0.96606884    -0.57200
H1809       H  0.85488963  0.73092684  0.97573342     0.18400
O1810       O  0.81004991  0.69380450  0.04611957    -0.63900
H1811       H  0.77795213  0.73278240  0.03801030     0.16900
C1812       C  0.74673557  0.76101827  0.99894936     0.29100
C1813       C  0.72571831  0.77924958  0.99838185    -0.24800
C1814       C  0.73046664  0.80664497  0.00029494    -0.24000
C1815       C  0.75779486  0.81488291  0.99786895     0.40600
C1816       C  0.77889152  0.79653230  0.99852918    -0.26500
O1817       O  0.74081072  0.73470633  0.99771143    -0.58400
H1818       H  0.70573541  0.77124007  0.99631854     0.16200
O1819       O  0.76426568  0.84101694  0.99627038    -0.59800
H1820       H  0.79949379  0.80353166  0.99856960     0.14700
H1821       H  0.81566122  0.70287172  0.06268242     0.46500
H1822       H  0.73311122  0.73024307  0.01531370     0.41900
H1823       H  0.76864827  0.84410816  0.97730464     0.45300
H1824       H  0.81158589  0.75972857  0.95049568     0.36800
C1825       C  0.59205467  0.60838629  0.97040627    -0.27400
C1826       C  0.59574651  0.59108272  0.99179179     0.02200
C1827       C  0.57804400  0.59255619  0.01362766     0.30300
C1828       C  0.55763427  0.61148641  0.01422029    -0.19200
C1829       C  0.55406263  0.62906547  0.99303367    -0.28600
C1830       C  0.57140056  0.62719130  0.97084256     0.44300
C1831       C  0.61813249  0.57166408  0.99150251     0.05500
O1832       O  0.58045605  0.57547693  0.03452714    -0.57200
H1833       H  0.54439257  0.61226008  0.03131414     0.18400
O1834       O  0.56874259  0.64391850  0.94968652    -0.63900
H1835       H  0.60555445  0.60765989  0.95351372     0.16900
C1836       C  0.62097384  0.55336132  0.97067362     0.29100
C1837       C  0.64111846  0.53408505  0.97187048    -0.24800
C1838       C  0.65879353  0.53272267  0.99363910    -0.24000
C1839       C  0.65657519  0.55171576  0.01397740     0.40600
C1840       C  0.63643193  0.57094158  0.01276134    -0.26500
O1841       O  0.60328099  0.55329710  0.94974869    -0.58400
H1842       H  0.64248945  0.51977150  0.95597896     0.16200
O1843       O  0.67456186  0.55225209  0.03466274    -0.59800
H1844       H  0.63501021  0.58532391  0.02859366     0.14700
H1845       H  0.57968449  0.65954991  0.95436868     0.46500
H1846       H  0.61319821  0.56152895  0.93483318     0.41900
H1847       H  0.66504797  0.54388664  0.04976582     0.45300
H1848       H  0.57106878  0.55925809  0.02872692     0.36800
C1849       C  0.37480932  0.55044595  0.97443172    -0.27400
C1850       C  0.37835294  0.56565815  0.99736736     0.02200
C1851       C  0.36239091  0.56056006  0.01991369     0.30300
C1852       C  0.34346783  0.54015079  0.01933615    -0.19200
C1853       C  0.33998998  0.52476454  0.99638086    -0.28600
C1854       C  0.35587428  0.53020739  0.97375235     0.44300
C1855       C  0.39868622  0.58687495  0.99723863     0.05500
O1856       O  0.36412629  0.57635323  0.04198669    -0.57200
H1857       H  0.33109132  0.53677500  0.03672699     0.18400
O1858       O  0.35302763  0.51603098  0.95072717    -0.63900
H1859       H  0.38694730  0.55418460  0.95694463     0.16900
C1860       C  0.41910476  0.58788270  0.01659962     0.29100
C1861       C  0.43796187  0.60818299  0.01617619    -0.24800
C1862       C  0.43746381  0.62722840  0.99605850    -0.24000
C1863       C  0.41761704  0.62572066  0.97610680     0.40600
C1864       C  0.39833930  0.60570736  0.97689131    -0.26500
O1865       O  0.42120281  0.56880831  0.03567780    -0.58400
H1866       H  0.45341059  0.60870329  0.03137666     0.16200
O1867       O  0.41663923  0.64380128  0.95597188    -0.59800
H1868       H  0.38293541  0.60497246  0.96165659     0.14700
H1869       H  0.36594966  0.50127914  0.95233538     0.46500
H1870       H  0.43111050  0.55420533  0.02703151     0.41900
H1871       H  0.40604041  0.65869725  0.96318898     0.45300
H1872       H  0.37143464  0.56503693  0.05629022     0.36800
C1873       C  0.38901814  0.75218433  0.02357781    -0.27400
C1874       C  0.38441086  0.77007902  0.00286855     0.02200
C1875       C  0.40417294  0.77291849  0.98295414     0.30300
C1876       C  0.42745922  0.75728910  0.98339545    -0.19200
C1877       C  0.43172713  0.73884015  0.00368187    -0.28600
C1878       C  0.41234543  0.73665192  0.02409796     0.44300
C1879       C  0.35901359  0.78570802  0.00233169     0.05500
O1880       O  0.40135639  0.79165322  0.96358484    -0.57200
H1881       H  0.44223989  0.75961448  0.96773686     0.18400
O1882       O  0.41551684  0.71882593  0.04424202    -0.63900
H1883       H  0.37412683  0.74977855  0.03912221     0.16900
C1884       C  0.34198469  0.78555095  0.98002359     0.29100
C1885       C  0.31875788  0.80110648  0.97967619    -0.24800
C1886       C  0.31191592  0.81794965  0.00104568    -0.24000
C1887       C  0.32768181  0.81562008  0.02462429     0.40600
C1888       C  0.35107170  0.80005203  0.02477843    -0.26500
O1889       O  0.34767798  0.77003218  0.95844775    -0.58400
H1890       H  0.30635147  0.80066505  0.96202581     0.16200
O1891       O  0.31941148  0.82637869  0.04828115    -0.59800
H1892       H  0.36305952  0.79911187  0.04274020     0.14700
H1893       H  0.40703714  0.70242769  0.03765544     0.46500
H1894       H  0.33866410  0.75304309  0.96209716     0.41900
H1895       H  0.33406592  0.83839710  0.05398214     0.45300
H1896       H  0.39921755  0.78183765  0.94668047     0.36800
C1897       C  0.64733949  0.78192003  0.02444780    -0.27400
C1898       C  0.62844258  0.78597433  0.00419963     0.02200
C1899       C  0.63381185  0.80487118  0.98466146     0.30300
C1900       C  0.65848478  0.81807467  0.98444674    -0.19200
C1901       C  0.67883560  0.81269653  0.00337903    -0.28600
C1902       C  0.67194406  0.79545872  0.02455334     0.44300
C1903       C  0.60331891  0.77021461  0.00330907     0.05500
O1904       O  0.61442498  0.81148023  0.96639692    -0.57200
H1905       H  0.66084162  0.83318992  0.96966542     0.18400
O1906       O  0.68975906  0.79080686  0.04485406    -0.63900
H1907       H  0.64320586  0.76786647  0.04005976     0.16900
C1908       C  0.59638027  0.75598342  0.98027240     0.29100
C1909       C  0.57265284  0.74129951  0.97954018    -0.24800
C1910       C  0.55572858  0.73978629  0.00182857    -0.24000
C1911       C  0.56268925  0.75393940  0.02498624     0.40600
C1912       C  0.58635306  0.76896841  0.02559282    -0.26500
O1913       O  0.61307367  0.75565263  0.95855998    -0.58400
H1914       H  0.56805744  0.73021667  0.96170865     0.16200
O1915       O  0.54665434  0.75315758  0.04715917    -0.59800
H1916       H  0.59142653  0.77976905  0.04347397     0.14700
H1917       H  0.68290004  0.80112368  0.06014842     0.46500
H1918       H  0.62621553  0.74142173  0.96209077     0.41900
H1919       H  0.53325995  0.76736808  0.04460445     0.45300
H1920       H  0.62191341  0.80652564  0.94881247     0.36800
loop_ 
_geom_bond_atom_site_label_1 
_geom_bond_atom_site_label_2 
_geom_bond_distance 
_geom_bond_site_symmetry_2 
_ccdc_geom_bond_type 
O1           Cu9   2.005       .  S
O1           C11   1.277       .  A
O2           Cu9   1.989       .  S
O2           C12   1.276   1_554  A
O3           Cu9   2.015       .  S
O3           C13   1.280   1_554  A
O4           Cu9   2.021       .  S
O4           C14   1.279       .  A
O5          Cu10   2.016       .  S
O5           C14   1.279   1_556  A
O6          Cu10   2.016       .  S
O6           C13   1.278       .  A
O7          Cu10   2.009       .  S
O7           C12   1.278       .  A
O8          Cu10   2.005       .  S
O8           C11   1.279   1_556  A
Cu9         Cu10   2.370   1_554  S
C11        C1910   1.480       .  S
C12        C1862   1.473       .  S
C13        C1829   1.487       .  S
C14        C1877   1.488       .  S
C15        C1742   1.568   1_554  S
C15        C1757   1.563       .  S
C15        C1790   1.561       .  S
C15        C1805   1.562       .  S
C16        C1694   1.566   1_554  S
C16        C1709   1.571       .  S
C16        C1814   1.572       .  S
C16        C1901   1.566       .  S
O17         Cu25   2.009       .  S
O17          C27   1.278       .  A
O18         Cu25   2.011       .  S
O18          C28   1.278       .  A
O19         Cu25   2.015       .  S
O19          C29   1.279       .  A
O20         Cu25   2.019       .  S
O20          C30   1.279       .  A
O21         Cu26   2.012       .  S
O21          C30   1.278   1_554  A
O22         Cu26   2.017       .  S
O22          C29   1.279   1_554  A
O23         Cu26   2.009       .  S
O23          C28   1.279   1_554  A
O24         Cu26   2.015       .  S
O24          C27   1.278   1_554  A
Cu25        Cu26   2.367   1_556  S
C27        C1637   1.480       .  S
C28        C1766   1.489       .  S
C29        C1661   1.493   1_556  S
C30        C1838   1.485       .  S
C31        C1550   1.562       .  S
C31        C1574   1.565   1_554  S
C31        C1589   1.570       .  S
C31        C1613   1.567       .  S
C32        C1493   1.570       .  S
C32        C1517   1.565   1_556  S
C32        C1622   1.562       .  S
C32        C1670   1.571   1_556  S
O33         Cu41   2.016       .  S
O33          C43   1.279       .  A
O34         Cu41   2.019       .  S
O34          C44   1.279       .  A
O35         Cu41   2.018       .  S
O35          C45   1.280   1_556  A
O36         Cu41   2.026       .  S
O36          C46   1.281       .  A
O37         Cu42   1.998       .  S
O37          C46   1.276   1_554  A
O38         Cu42   2.007       .  S
O38          C45   1.278       .  A
O39         Cu42   2.016       .  S
O39          C44   1.279   1_554  A
O40         Cu42   2.016       .  S
O40          C43   1.279   1_554  A
Cu41        Cu42   2.367   1_556  S
C43        C1454   1.483       .  S
C44        C1598   1.491       .  S
C45        C1469   1.488       .  S
C46        C1646   1.489       .  S
C47        C1358   1.562   1_556  S
C47        C1373   1.569       .  S
C47        C1397   1.563       .  S
C47        C1430   1.560       .  S
C48        C1301   1.566   1_556  S
C48        C1334   1.566       .  S
C48        C1421   1.563       .  S
C48        C1478   1.565       .  S
C49        C1214   1.567       .  S
C49        C1229   1.574   1_554  S
C49        C1262   1.566       .  S
C49        C1277   1.564       .  S
C50        C1166   1.563       .  S
C50        C1190   1.566   1_556  S
C50        C1286   1.563       .  S
C50        C1886   1.569   1_556  S
O51         Cu59   1.994       .  S
O51          C61   1.276       .  A
O52         Cu59   1.988       .  S
O52          C62   1.275       .  A
O53         Cu59   2.023       .  S
O53          C63   1.280       .  A
O54         Cu59   2.020       .  S
O54          C64   1.280       .  A
O55         Cu60   2.007       .  S
O55          C64   1.277   1_554  A
O56         Cu60   2.013       .  S
O56          C63   1.278   1_554  A
O57         Cu60   2.017       .  S
O57          C62   1.280   1_554  A
O58         Cu60   2.012       .  S
O58          C61   1.279   1_554  A
Cu59        Cu60   2.368   1_556  S
C61        C1406   1.482       .  S
C62        C1853   1.481       .  S
C63        C1445   1.492       .  S
C64        C1253   1.486       .  S
O65         Cu73   2.013       .  S
O65          C75   1.278       .  A
O66         Cu73   2.014       .  S
O66          C76   1.278       .  A
O67         Cu73   2.020       .  S
O67          C77   1.279       .  A
O68         Cu73   2.019       .  S
O68          C78   1.280       .  A
O69         Cu74   2.012       .  S
O69          C78   1.278       .  A
O70         Cu74   2.012       .  S
O70          C77   1.279       .  A
O71         Cu74   2.018       .  S
O71          C76   1.279       .  A
O72         Cu74   2.023       .  S
O72          C75   1.280       .  A
Cu73        Cu74   2.366       .  S
C75        C1118   1.491       .  S
C76        C1085   1.488       .  S
C77        C1061   1.489       .  S
C78        C1133   1.490       .  S
C79         C965   1.565       .  S
C79         C989   1.568       .  S
C79        C1013   1.561       .  S
C79        C1037   1.566       .  S
C80        C1046   1.568       .  S
C80        C1109   1.568       .  S
C80        C1565   1.563       .  S
C80        C1685   1.564       .  S
O81         Cu89   2.016       .  S
O81          C91   1.279       .  A
O82         Cu89   2.017       .  S
O82          C92   1.279       .  A
O83         Cu89   2.018       .  S
O83          C93   1.279       .  A
O84         Cu89   2.018       .  S
O84          C94   1.279       .  A
O85         Cu90   2.022       .  S
O85          C94   1.280       .  A
O86         Cu90   2.018       .  S
O86          C93   1.279       .  A
O87         Cu90   2.006       .  S
O87          C92   1.277       .  A
O88         Cu90   2.012       .  S
O88          C91   1.279       .  A
Cu89        Cu90   2.367       .  S
C91         C998   1.486       .  S
C92         C926   1.486       .  S
C93        C1070   1.485       .  S
C94         C941   1.493       .  S
C95         C821   1.559   1_565  S
C95         C854   1.568       .  S
C95         C869   1.566       .  S
C95         C893   1.561       .  S
C96         C902   1.567       .  S
C96        C1142   1.567       .  S
C96        C1157   1.557       .  S
C96        C1325   1.570   1_565  S
O97        Cu105   2.011       .  S
O97         C107   1.279       .  A
O98        Cu105   2.010       .  S
O98         C108   1.278       .  A
O99        Cu105   2.014       .  S
O99         C109   1.279       .  A
O100       Cu105   2.006       .  S
O100        C110   1.278       .  A
O101       Cu106   2.009       .  S
O101        C110   1.279       .  A
O102       Cu106   2.009       .  S
O102        C109   1.278       .  A
O103       Cu106   2.019       .  S
O103        C108   1.280       .  A
O104       Cu106   2.015       .  S
O104        C107   1.278       .  A
Cu105      Cu106   2.368       .  S
C107       C1094   1.481       .  S
C108        C797   1.490       .  S
C109        C878   1.486       .  S
C110        C773   1.482       .  S
C111        C734   1.570       .  S
C111        C749   1.565       .  S
C111       C1181   1.571       .  S
C111       C1310   1.568   1_565  S
C112        C686   1.563   1_565  S
C112        C701   1.566       .  S
C112        C758   1.565       .  S
C112        C806   1.566       .  S
C113        C629   1.572       .  S
C113        C653   1.568       .  S
C113       C1541   1.571       .  S
C113       C1718   1.568       .  S
C114        C581   1.566       .  S
C114        C605   1.567       .  S
C114        C662   1.565       .  S
C114        C950   1.569       .  S
O115       Cu123   2.019       .  S
O115        C125   1.279       .  A
O116       Cu123   2.018       .  S
O116        C126   1.280       .  A
O117       Cu123   2.019       .  S
O117        C127   1.278       .  A
O118       Cu123   2.012       .  S
O118        C128   1.278       .  A
O119       Cu124   2.010       .  S
O119        C128   1.278       .  A
O120       Cu124   2.014       .  S
O120        C127   1.277       .  A
O121       Cu124   2.006       .  S
O121        C126   1.278       .  A
O122       Cu124   1.995       .  S
O122        C125   1.277       .  A
Cu123      Cu124   2.371       .  S
C125        C782   1.479       .  S
C126        C638   1.487       .  S
C127        C725   1.473       .  S
C128        C917   1.482       .  S
O129       Cu137   2.004       .  S
O129        C139   1.278       .  A
O130       Cu137   1.998       .  S
O130        C140   1.277       .  A
O131       Cu137   2.012       .  S
O131        C141   1.279       .  A
O132       Cu137   2.020       .  S
O132        C142   1.279       .  A
O133       Cu138   2.010       .  S
O133        C142   1.279   1_455  A
O134       Cu138   2.005       .  S
O134        C141   1.277   1_455  A
O135       Cu138   2.003       .  S
O135        C140   1.277   1_455  A
O136       Cu138   2.013       .  S
O136        C139   1.278   1_455  A
Cu137      Cu138   2.369   1_655  S
C139        C566   1.483       .  S
C140        C509   1.476       .  S
C141        C494   1.485       .  S
C142        C533   1.487       .  S
C143        C437   1.563       .  S
C143        C461   1.563       .  S
C143        C845   1.565       .  S
C143        C974   1.564   1_455  S
C144        C470   1.568       .  S
C144        C542   1.562       .  S
C144       C1238   1.569   1_655  S
C144       C1733   1.567       .  S
O145       Cu153   1.988       .  S
O145        C155   1.276   1_455  A
O146       Cu153   1.992       .  S
O146        C156   1.277       .  A
O147       Cu153   2.017       .  S
O147        C157   1.278       .  A
O148       Cu153   2.015       .  S
O148        C158   1.279   1_455  A
O149       Cu154   2.006       .  S
O149        C158   1.277       .  A
O150       Cu154   2.010       .  S
O150        C157   1.279   1_655  A
O151       Cu154   2.021       .  S
O151        C156   1.279   1_655  A
O152       Cu154   2.010       .  S
O152        C155   1.278       .  A
Cu153      Cu154   2.369   1_455  S
C155        C518   1.474       .  S
C156        C422   1.484       .  S
C157        C446   1.481       .  S
C158        C389   1.488       .  S
C159        C350   1.568       .  S
C159        C365   1.569       .  S
C159       C1205   1.562       .  S
C159       C1781   1.564   1_455  S
C160        C374   1.566       .  S
C160        C413   1.564       .  S
C160        C590   1.572   1_455  S
C160        C710   1.562       .  S
O161       Cu169   2.001       .  S
O161        C171   1.276   1_455  A
O162       Cu169   2.007       .  S
O162        C172   1.278   1_455  A
O163       Cu169   1.999       .  S
O163        C173   1.277   1_455  A
O164       Cu169   2.003       .  S
O164        C174   1.278   1_455  A
O165       Cu170   2.010       .  S
O165        C174   1.278       .  A
O166       Cu170   2.013       .  S
O166        C173   1.278       .  A
O167       Cu170   2.019       .  S
O167        C172   1.279       .  A
O168       Cu170   2.016       .  S
O168        C171   1.279       .  A
Cu169      Cu170   2.370   1_455  S
C171        C398   1.476       .  S
C172        C326   1.485       .  S
C173        C341   1.479       .  S
C174        C293   1.486       .  S
C175        C245   1.559   1_655  S
C175        C278   1.559       .  S
C175        C830   1.561   1_655  S
C175       C1022   1.561       .  S
C176        C269   1.559       .  S
C176        C557   1.569       .  S
C176       C1382   1.564   1_655  S
C176       C1502   1.569       .  S
C177        C206   1.565   1_455  S
C177        C221   1.563       .  S
C177        C614   1.569   1_455  S
C177        C677   1.563       .  S
C178        C230   1.557       .  S
C178        C317   1.567   1_655  S
C178       C1349   1.563   1_655  S
C178       C1526   1.561       .  S
O179       Cu187   2.006       .  S
O179        C189   1.278       .  A
O180       Cu187   2.012       .  S
O180        C190   1.278       .  A
O181       Cu187   2.013       .  S
O181        C191   1.278       .  A
O182       Cu187   2.009       .  S
O182        C192   1.278       .  A
O183       Cu188   2.003       .  S
O183        C192   1.277   1_455  A
O184       Cu188   2.004       .  S
O184        C191   1.278   1_455  A
O185       Cu188   2.015       .  S
O185        C190   1.279   1_455  A
O186       Cu188   2.016       .  S
O186        C189   1.279   1_455  A
Cu187      Cu188   2.370   1_655  S
C189        C485   1.481       .  S
C190        C197   1.483       .  S
C191        C254   1.479       .  S
C192        C302   1.475       .  S
C193        C194   1.403       .  A
C193        C198   1.402       .  A
C193        H203   1.083       .  S
C194        C199   1.484       .  S
C194        C195   1.409   1_655  A
C195        C196   1.400       .  A
C195        O200   1.372       .  S
C196        C197   1.405   1_455  A
C196        H201   1.083       .  S
C197        C198   1.413       .  A
C198        O202   1.372       .  S
C199        C204   1.403       .  A
C199        C208   1.399   1_655  A
O200        H216   0.992       .  S
O202        H213   0.992       .  S
C204        C205   1.401       .  A
C204        O209   1.372       .  S
C205        C206   1.419       .  A
C205        H210   1.079       .  S
C206        C207   1.423   1_655  A
C207        C208   1.400       .  A
C207        O211   1.371       .  S
C208        H212   1.084       .  S
O209        H214   0.991       .  S
O211        H215   0.992       .  S
C217        C218   1.400   1_455  A
C217        C222   1.401       .  A
C217        H227   1.083       .  S
C218        C223   1.491       .  S
C218        C219   1.407       .  A
C219        C220   1.398       .  A
C219        O224   1.371       .  S
C220        C221   1.416   1_655  A
C220        H225   1.083       .  S
C221        C222   1.428       .  A
C222        O226   1.372       .  S
C223        C228   1.408   1_655  A
C223        C232   1.401       .  A
O224        H240   0.991       .  S
O226        H237   0.992       .  S
C228        C229   1.399       .  A
C228        O233   1.373       .  S
C229        C230   1.413   1_455  A
C229        H234   1.083       .  S
C230        C231   1.425       .  A
C231        C232   1.400       .  A
C231        O235   1.371       .  S
C232        H236   1.083       .  S
O233        H238   0.992       .  S
O235        H239   0.991       .  S
C241        C242   1.399   1_455  A
C241        C246   1.400       .  A
C241        H251   1.083       .  S
C242        C247   1.486       .  S
C242        C243   1.405       .  A
C243        C244   1.398       .  A
C243        O248   1.371       .  S
C244        C245   1.415   1_655  A
C244        H249   1.082       .  S
C245        C246   1.426       .  A
C246        O250   1.373       .  S
C247        C252   1.410   1_655  A
C247        C256   1.406       .  A
O248        H264   0.992       .  S
O250        H261   0.993       .  S
C252        C253   1.397       .  A
C252        O257   1.372       .  S
C253        C254   1.404   1_455  A
C253        H258   1.084       .  S
C254        C255   1.410       .  A
C255        C256   1.402       .  A
C255        O259   1.371       .  S
C256        H260   1.083       .  S
O257        H262   0.992       .  S
O259        H263   0.992       .  S
C265        C266   1.399   1_455  A
C265        C270   1.402       .  A
C265        H275   1.083       .  S
C266        C271   1.486       .  S
C266        C267   1.405       .  A
C267        C268   1.397       .  A
C267        O272   1.372       .  S
C268        C269   1.417       .  A
C268        H273   1.083       .  S
C269        C270   1.427   1_655  A
C270        O274   1.372       .  S
C271        C276   1.405   1_655  A
C271        C280   1.399       .  A
O272        H288   0.992       .  S
O274        H285   0.993       .  S
C276        C277   1.399       .  A
C276        O281   1.373       .  S
C277        C278   1.414   1_455  A
C277        H282   1.083       .  S
C278        C279   1.427       .  A
C279        C280   1.402       .  A
C279        O283   1.373       .  S
C280        H284   1.083       .  S
O281        H286   0.992       .  S
O283        H287   0.993       .  S
C289        C290   1.403   1_455  A
C289        C294   1.398       .  A
C289        H299   1.083       .  S
C290        C295   1.485       .  S
C290        C291   1.409       .  A
C291        C292   1.401       .  A
C291        O296   1.372       .  S
C292        C293   1.407       .  A
C292        H297   1.083       .  S
C293        C294   1.413   1_655  A
C294        O298   1.371       .  S
C295        C300   1.410   1_655  A
C295        C304   1.405       .  A
O296        H312   0.992       .  S
O298        H309   0.992       .  S
C300        C301   1.399       .  A
C300        O305   1.373       .  S
C301        C302   1.402   1_455  A
C301        H306   1.084       .  S
C302        C303   1.410       .  A
C303        C304   1.401       .  A
C303        O307   1.372       .  S
C304        H308   1.083       .  S
O305        H310   0.992       .  S
O307        H311   0.992       .  S
C313        C314   1.400   1_455  A
C313        C318   1.403       .  A
C313        H323   1.083       .  S
C314        C319   1.490       .  S
C314        C315   1.405       .  A
C315        C316   1.399       .  A
C315        O320   1.372       .  S
C316        C317   1.416   1_655  A
C316        H321   1.082       .  S
C317        C318   1.427       .  A
C318        O322   1.373       .  S
C319        C324   1.410   1_655  A
C319        C328   1.406       .  A
O320        H336   0.992       .  S
O322        H333   0.993       .  S
C324        C325   1.399       .  A
C324        O329   1.372       .  S
C325        C326   1.406   1_455  A
C325        H330   1.083       .  S
C326        C327   1.411       .  A
C327        C328   1.403       .  A
C327        O331   1.371       .  S
C328        H332   1.083       .  S
O329        H334   0.992       .  S
O331        H335   0.992       .  S
C337        C338   1.399   1_455  A
C337        C342   1.395       .  A
C337        H347   1.084       .  S
C338        C343   1.475       .  S
C338        C339   1.406       .  A
C339        C340   1.404       .  A
C339        O344   1.372       .  S
C340        C341   1.407       .  A
C340        H345   1.083       .  S
C341        C342   1.412   1_655  A
C342        O346   1.372       .  S
C343        C348   1.400       .  A
C343        C352   1.394   1_655  A
O344        H360   0.992       .  S
O346        H357   0.992       .  S
C348        C349   1.398       .  A
C348        O353   1.372       .  S
C349        C350   1.419   1_655  A
C349        H354   1.084       .  S
C350        C351   1.431       .  A
C351        C352   1.401       .  A
C351        O355   1.372       .  S
C352        H356   1.084       .  S
O353        H358   0.991       .  S
O355        H359   0.993       .  S
C361        C362   1.400       .  A
C361        C366   1.402       .  A
C361        H371   1.084       .  S
C362        C367   1.486       .  S
C362        C363   1.403       .  A
C363        C364   1.401       .  A
C363        O368   1.372       .  S
C364        C365   1.419       .  A
C364        H369   1.079       .  S
C365        C366   1.423       .  A
C366        O370   1.371       .  S
C367        C372   1.403   1_455  A
C367        C376   1.399       .  A
O368        H384   0.991       .  S
O370        H381   0.991       .  S
C372        C373   1.400       .  A
C372        O377   1.372       .  S
C373        C374   1.418   1_655  A
C373        H378   1.079       .  S
C374        C375   1.423       .  A
C375        C376   1.403       .  A
C375        O379   1.370       .  S
C376        H380   1.083       .  S
O377        H382   0.992       .  S
O379        H383   0.992       .  S
C385        C386   1.403       .  A
C385        C390   1.400       .  A
C385        H395   1.083       .  S
C386        C391   1.485       .  S
C386        C387   1.409   1_655  A
C387        C388   1.400       .  A
C387        O392   1.372       .  S
C388        C389   1.407   1_455  A
C388        H393   1.083       .  S
C389        C390   1.414       .  A
C390        O394   1.371       .  S
C391        C396   1.410       .  A
C391        C400   1.405   1_655  A
O392        H408   0.992       .  S
O394        H405   0.992       .  S
C396        C397   1.401       .  A
C396        O401   1.372       .  S
C397        C398   1.402       .  A
C397        H402   1.084       .  S
C398        C399   1.409   1_655  A
C399        C400   1.401       .  A
C399        O403   1.372       .  S
C400        H404   1.084       .  S
O401        H406   0.992       .  S
O403        H407   0.992       .  S
C409        C410   1.400       .  A
C409        C414   1.400       .  A
C409        H419   1.083       .  S
C410        C415   1.488       .  S
C410        C411   1.406   1_455  A
C411        C412   1.399       .  A
C411        O416   1.371       .  S
C412        C413   1.415   1_655  A
C412        H417   1.083       .  S
C413        C414   1.428       .  A
C414        O418   1.372       .  S
C415        C420   1.409       .  A
C415        C424   1.406   1_455  A
O416        H432   0.991       .  S
O418        H429   0.992       .  S
C420        C421   1.396       .  A
C420        O425   1.372       .  S
C421        C422   1.406       .  A
C421        H426   1.083       .  S
C422        C423   1.411   1_455  A
C423        C424   1.403       .  A
C423        O427   1.371       .  S
C424        H428   1.083       .  S
O425        H430   0.992       .  S
O427        H431   0.992       .  S
C433        C434   1.401   1_655  A
C433        C438   1.402       .  A
C433        H443   1.083       .  S
C434        C439   1.491       .  S
C434        C435   1.406       .  A
C435        C436   1.401       .  A
C435        O440   1.371       .  S
C436        C437   1.416       .  A
C436        H441   1.083       .  S
C437        C438   1.425   1_455  A
C438        O442   1.373       .  S
C439        C444   1.410   1_455  A
C439        C448   1.408       .  A
O440        H456   0.992       .  S
O442        H453   0.993       .  S
C444        C445   1.398       .  A
C444        O449   1.372       .  S
C445        C446   1.404   1_655  A
C445        H450   1.084       .  S
C446        C447   1.410       .  A
C447        C448   1.406       .  A
C447        O451   1.371       .  S
C448        H452   1.083       .  S
O449        H454   0.992       .  S
O451        H455   0.992       .  S
C457        C458   1.404       .  A
C457        C462   1.407       .  A
C457        H467   1.082       .  S
C458        C463   1.497       .  S
C458        C459   1.408   1_455  A
C459        C460   1.398       .  A
C459        O464   1.372       .  S
C460        C461   1.415   1_655  A
C460        H465   1.082       .  S
C461        C462   1.425       .  A
C462        O466   1.372       .  S
C463        C468   1.406       .  A
C463        C472   1.403   1_455  A
O464        H480   0.992       .  S
O466        H477   0.993       .  S
C468        C469   1.401       .  A
C468        O473   1.373       .  S
C469        C470   1.417   1_455  A
C469        H474   1.082       .  S
C470        C471   1.425       .  A
C471        C472   1.405       .  A
C471        O475   1.371       .  S
C472        H476   1.083       .  S
O473        H478   0.992       .  S
O475        H479   0.992       .  S
C481        C482   1.403       .  A
C481        C486   1.399       .  A
C481        H491   1.083       .  S
C482        C487   1.486       .  S
C482        C483   1.411   1_655  A
C483        C484   1.402       .  A
C483        O488   1.372       .  S
C484        C485   1.405   1_455  A
C484        H489   1.084       .  S
C485        C486   1.410       .  A
C486        O490   1.372       .  S
C487        C492   1.409       .  A
C487        C496   1.403   1_655  A
O488        H504   0.992       .  S
O490        H501   0.992       .  S
C492        C493   1.400       .  A
C492        O497   1.372       .  S
C493        C494   1.406       .  A
C493        H498   1.083       .  S
C494        C495   1.413   1_655  A
C495        C496   1.401       .  A
C495        O499   1.371       .  S
C496        H500   1.083       .  S
O497        H502   0.991       .  S
O499        H503   0.992       .  S
C505        C506   1.404   1_455  A
C505        C510   1.397       .  A
C505        H515   1.083       .  S
C506        C511   1.479       .  S
C506        C507   1.407       .  A
C507        C508   1.397       .  A
C507        O512   1.372       .  S
C508        C509   1.404       .  A
C508        H513   1.084       .  S
C509        C510   1.410   1_655  A
C510        O514   1.372       .  S
C511        C516   1.407   1_655  A
C511        C520   1.405       .  A
O512        H528   0.992       .  S
O514        H525   0.992       .  S
C516        C517   1.395       .  A
C516        O521   1.373       .  S
C517        C518   1.404   1_455  A
C517        H522   1.084       .  S
C518        C519   1.409       .  A
C519        C520   1.399       .  A
C519        O523   1.372       .  S
C520        H524   1.084       .  S
O521        H526   0.991       .  S
O523        H527   0.992       .  S
C529        C530   1.407       .  A
C529        C534   1.405       .  A
C529        H539   1.083       .  S
C530        C535   1.490       .  S
C530        C531   1.409   1_655  A
C531        C532   1.398       .  A
C531        O536   1.372       .  S
C532        C533   1.406   1_455  A
C532        H537   1.083       .  S
C533        C534   1.412       .  A
C534        O538   1.371       .  S
C535        C540   1.404       .  A
C535        C544   1.402   1_655  A
O536        H552   0.992       .  S
O538        H549   0.992       .  S
C540        C541   1.401       .  A
C540        O545   1.372       .  S
C541        C542   1.418       .  A
C541        H546   1.083       .  S
C542        C543   1.424   1_655  A
C543        C544   1.401       .  A
C543        O547   1.370       .  S
C544        H548   1.083       .  S
O545        H550   0.991       .  S
O547        H551   0.991       .  S
C553        C554   1.400   1_455  A
C553        C558   1.403       .  A
C553        H563   1.083       .  S
C554        C559   1.484       .  S
C554        C555   1.403       .  A
C555        C556   1.395       .  A
C555        O560   1.372       .  S
C556        C557   1.417       .  A
C556        H561   1.078       .  S
C557        C558   1.425   1_655  A
C558        O562   1.372       .  S
C559        C564   1.409   1_655  A
C559        C568   1.402       .  A
O560        H576   0.992       .  S
O562        H573   0.992       .  S
C564        C565   1.404       .  A
C564        O569   1.372       .  S
C565        C566   1.406   1_455  A
C565        H570   1.083       .  S
C566        C567   1.413       .  A
C567        C568   1.397       .  A
C567        O571   1.372       .  S
C568        H572   1.084       .  S
O569        H574   0.992       .  S
O571        H575   0.992       .  S
C577        C578   1.401       .  A
C577        C582   1.407       .  A
C577        H587   1.083       .  S
C578        C583   1.484       .  S
C578        C579   1.402       .  A
C579        C580   1.394       .  A
C579        O584   1.373       .  S
C580        C581   1.418       .  A
C580        H585   1.077       .  S
C581        C582   1.425       .  A
C582        O586   1.372       .  S
C583        C588   1.402       .  A
C583        C592   1.399       .  A
O584        H600   0.992       .  S
O586        H597   0.992       .  S
C588        C589   1.402       .  A
C588        O593   1.372       .  S
C589        C590   1.421       .  A
C589        H594   1.077       .  S
C590        C591   1.425       .  A
C591        C592   1.400       .  A
C591        O595   1.373       .  S
C592        H596   1.084       .  S
O593        H598   0.992       .  S
O595        H599   0.992       .  S
C601        C602   1.401       .  A
C601        C606   1.404       .  A
C601        H611   1.083       .  S
C602        C607   1.487       .  S
C602        C603   1.405       .  A
C603        C604   1.400       .  A
C603        O608   1.373       .  S
C604        C605   1.415   1_545  A
C604        H609   1.080       .  S
C605        C606   1.423   1_565  A
C606        O610   1.370   1_545  S
C607        C612   1.404       .  A
C607        C616   1.400       .  A
O608        H624   0.992       .  S
O610        H621   0.991       .  S
C612        C613   1.395       .  A
C612        O617   1.372       .  S
C613        C614   1.415       .  A
C613        H618   1.081       .  S
C614        C615   1.429       .  A
C615        C616   1.409       .  A
C615        O619   1.372       .  S
C616        H620   1.084       .  S
O617        H622   0.992       .  S
O619        H623   0.993       .  S
C625        C626   1.397       .  A
C625        C630   1.399       .  A
C625        H635   1.084       .  S
C626        C631   1.486       .  S
C626        C627   1.404       .  A
C627        C628   1.402       .  A
C627        O632   1.372   1_565  S
C628        C629   1.418       .  A
C628        H633   1.083   1_565  S
C629        C630   1.432       .  A
C630        O634   1.369       .  S
C631        C636   1.409       .  A
C631        C640   1.403       .  A
O632        H648   0.992       .  S
O634        H645   0.991       .  S
C636        C637   1.402       .  A
C636        O641   1.371   1_565  S
C637        C638   1.406       .  A
C637        H642   1.083   1_565  S
C638        C639   1.414       .  A
C639        C640   1.400       .  A
C639        O643   1.372       .  S
C640        H644   1.084       .  S
O641        H646   0.992       .  S
O643        H647   0.992       .  S
C649        C650   1.400       .  A
C649        C654   1.408       .  A
C649        H659   1.084       .  S
C650        C655   1.482       .  S
C650        C651   1.399       .  A
C651        C652   1.396       .  A
C651        O656   1.373   1_565  S
C652        C653   1.420       .  A
C652        H657   1.078   1_565  S
C653        C654   1.425       .  A
C654        O658   1.376       .  S
C655        C660   1.402       .  A
C655        C664   1.399       .  A
O656        H672   0.992       .  S
O658        H669   0.990       .  S
C660        C661   1.397       .  A
C660        O665   1.372   1_565  S
C661        C662   1.418       .  A
C661        H666   1.083   1_565  S
C662        C663   1.427       .  A
C663        C664   1.404       .  A
C663        O667   1.370       .  S
C664        H668   1.084       .  S
O665        H670   0.992       .  S
O667        H671   0.991       .  S
C673        C674   1.398       .  A
C673        C678   1.399       .  A
C673        H683   1.084       .  S
C674        C679   1.481       .  S
C674        C675   1.403       .  A
C675        C676   1.400       .  A
C675        O680   1.372       .  S
C676        C677   1.417       .  A
C676        H681   1.083       .  S
C677        C678   1.429       .  A
C678        O682   1.370       .  S
C679        C684   1.405       .  A
C679        C688   1.396       .  A
O680        H696   0.992       .  S
O682        H693   0.992       .  S
C684        C685   1.406       .  A
C684        O689   1.373       .  S
C685        C686   1.417       .  A
C685        H690   1.080       .  S
C686        C687   1.424       .  A
C687        C688   1.394       .  A
C687        O691   1.372   1_545  S
C688        H692   1.084       .  S
O689        H694   0.991       .  S
O691        H695   0.992       .  S
C697        C698   1.400       .  A
C697        C702   1.405       .  A
C697        H707   1.083       .  S
C698        C703   1.481       .  S
C698        C699   1.402       .  A
C699        C700   1.396       .  A
C699        O704   1.372       .  S
C700        C701   1.418       .  A
C700        H705   1.079       .  S
C701        C702   1.423       .  A
C702        O706   1.371       .  S
C703        C708   1.402       .  A
C703        C712   1.397       .  A
O704        H720   0.992       .  S
O706        H717   0.992       .  S
C708        C709   1.404       .  A
C708        O713   1.371       .  S
C709        C710   1.419       .  A
C709        H714   1.078       .  S
C710        C711   1.425       .  A
C711        C712   1.397       .  A
C711        O715   1.373       .  S
C712        H716   1.084       .  S
O713        H718   0.992       .  S
O715        H719   0.992       .  S
C721        C722   1.409       .  A
C721        C726   1.405       .  A
C721        H731   1.083       .  S
C722        C727   1.491       .  S
C722        C723   1.409       .  A
C723        C724   1.402       .  A
C723        O728   1.371       .  S
C724        C725   1.403       .  A
C724        H729   1.084       .  S
C725        C726   1.405       .  A
C726        O730   1.371       .  S
C727        C732   1.403       .  A
C727        C736   1.403       .  A
O728        H744   0.992       .  S
O730        H741   0.992       .  S
C732        C733   1.400   1_565  A
C732        O737   1.372   1_565  S
C733        C734   1.418   1_545  A
C733        H738   1.078       .  S
C734        C735   1.424       .  A
C735        C736   1.407       .  A
C735        O739   1.373       .  S
C736        H740   1.083       .  S
O737        H742   0.992       .  S
O739        H743   0.992       .  S
C745        C746   1.399       .  A
C745        C750   1.402       .  A
C745        H755   1.084   1_565  S
C746        C751   1.483       .  S
C746        C747   1.402       .  A
C747        C748   1.402       .  A
C747        O752   1.372       .  S
C748        C749   1.420       .  A
C748        H753   1.078       .  S
C749        C750   1.423       .  A
C750        O754   1.373   1_565  S
C751        C756   1.400       .  A
C751        C760   1.401       .  A
O752        H768   0.992       .  S
O754        H765   0.991       .  S
C756        C757   1.397       .  A
C756        O761   1.372       .  S
C757        C758   1.418       .  A
C757        H762   1.079       .  S
C758        C759   1.424       .  A
C759        C760   1.407       .  A
C759        O763   1.372       .  S
C760        H764   1.084       .  S
O761        H766   0.992       .  S
O763        H767   0.992       .  S
C769        C770   1.403       .  A
C769        C774   1.400       .  A
C769        H779   1.084   1_565  S
C770        C775   1.484       .  S
C770        C771   1.409       .  A
C771        C772   1.401       .  A
C771        O776   1.373       .  S
C772        C773   1.405       .  A
C772        H777   1.084       .  S
C773        C774   1.412       .  A
C774        O778   1.372   1_565  S
C775        C780   1.408       .  A
C775        C784   1.405       .  A
O776        H792   0.992       .  S
O778        H789   0.992       .  S
C780        C781   1.397       .  A
C780        O785   1.371       .  S
C781        C782   1.404       .  A
C781        H786   1.084       .  S
C782        C783   1.410       .  A
C783        C784   1.402       .  A
C783        O787   1.371   1_565  S
C784        H788   1.084   1_565  S
O785        H790   0.992       .  S
O787        H791   0.992       .  S
C793        C794   1.405       .  A
C793        C798   1.402       .  A
C793        H803   1.084   1_565  S
C794        C799   1.490       .  S
C794        C795   1.409       .  A
C795        C796   1.403       .  A
C795        O800   1.373       .  S
C796        C797   1.407       .  A
C796        H801   1.083       .  S
C797        C798   1.414       .  A
C798        O802   1.371   1_565  S
C799        C804   1.406       .  A
C799        C808   1.401       .  A
O800        H816   0.992       .  S
O802        H813   0.992       .  S
C804        C805   1.403       .  A
C804        O809   1.373       .  S
C805        C806   1.417       .  A
C805        H810   1.079       .  S
C806        C807   1.423       .  A
C807        C808   1.400       .  A
C807        O811   1.372   1_565  S
C808        H812   1.084   1_565  S
O809        H814   0.992       .  S
O811        H815   0.992       .  S
C817        C818   1.400       .  A
C817        C822   1.399       .  A
C817        H827   1.083       .  S
C818        C823   1.483       .  S
C818        C819   1.404       .  A
C819        C820   1.400       .  A
C819        O824   1.374       .  S
C820        C821   1.416       .  A
C820        H825   1.080       .  S
C821        C822   1.422       .  A
C822        O826   1.371   1_545  S
C823        C828   1.404       .  A
C823        C832   1.400       .  A
O824        H840   0.992       .  S
O826        H837   0.992   1_565  S
C828        C829   1.393       .  A
C828        O833   1.372       .  S
C829        C830   1.416       .  A
C829        H834   1.082       .  S
C830        C831   1.427       .  A
C831        C832   1.405       .  A
C831        O835   1.372       .  S
C832        H836   1.084       .  S
O833        H838   0.992       .  S
O835        H839   0.993       .  S
C841        C842   1.394       .  A
C841        C846   1.401       .  A
C841        H851   1.084       .  S
C842        C847   1.476       .  S
C842        C843   1.401       .  A
C843        C844   1.401       .  A
C843        O848   1.371       .  S
C844        C845   1.418       .  A
C844        H849   1.083       .  S
C845        C846   1.430       .  A
C846        O850   1.372       .  S
C847        C852   1.401       .  A
C847        C856   1.394       .  A
O848        H864   0.992       .  S
O850        H861   0.992       .  S
C852        C853   1.402       .  A
C852        O857   1.371       .  S
C853        C854   1.417       .  A
C853        H858   1.082       .  S
C854        C855   1.431       .  A
C855        C856   1.399       .  A
C855        O859   1.371       .  S
C856        H860   1.084       .  S
O857        H862   0.992       .  S
O859        H863   0.991       .  S
C865        C866   1.398       .  A
C865        C870   1.400       .  A
C865        H875   1.084       .  S
C866        C871   1.484       .  S
C866        C867   1.403       .  A
C867        C868   1.402       .  A
C867        O872   1.372       .  S
C868        C869   1.417       .  A
C868        H873   1.082       .  S
C869        C870   1.427       .  A
C870        O874   1.371       .  S
C871        C876   1.408       .  A
C871        C880   1.402       .  A
O872        H888   0.992       .  S
O874        H885   0.992       .  S
C876        C877   1.402       .  A
C876        O881   1.372   1_565  S
C877        C878   1.407       .  A
C877        H882   1.083   1_565  S
C878        C879   1.413       .  A
C879        C880   1.400       .  A
C879        O883   1.371       .  S
C880        H884   1.084       .  S
O881        H886   0.992       .  S
O883        H887   0.992       .  S
C889        C890   1.401       .  A
C889        C894   1.398       .  A
C889        H899   1.083   1_565  S
C890        C895   1.493       .  S
C890        C891   1.408       .  A
C891        C892   1.401       .  A
C891        O896   1.372       .  S
C892        C893   1.416       .  A
C892        H897   1.078       .  S
C893        C894   1.422       .  A
C894        O898   1.372   1_565  S
C895        C900   1.407       .  A
C895        C904   1.402       .  A
O896        H912   0.992       .  S
O898        H909   0.992       .  S
C900        C901   1.395       .  A
C900        O905   1.372       .  S
C901        C902   1.417       .  A
C901        H906   1.079       .  S
C902        C903   1.423       .  A
C903        C904   1.405       .  A
C903        O907   1.371       .  S
C904        H908   1.083       .  S
O905        H910   0.991       .  S
O907        H911   0.992       .  S
C913        C914   1.404       .  A
C913        C918   1.400       .  A
C913        H923   1.084       .  S
C914        C919   1.486       .  S
C914        C915   1.410       .  A
C915        C916   1.403       .  A
C915        O920   1.373   1_565  S
C916        C917   1.405       .  A
C916        H921   1.084   1_565  S
C917        C918   1.410       .  A
C918        O922   1.372       .  S
C919        C924   1.409       .  A
C919        C928   1.403       .  A
O920        H936   0.992       .  S
O922        H933   0.992       .  S
C924        C925   1.401       .  A
C924        O929   1.371   1_565  S
C925        C926   1.406       .  A
C925        H930   1.083   1_565  S
C926        C927   1.413       .  A
C927        C928   1.400       .  A
C927        O931   1.371       .  S
C928        H932   1.084       .  S
O929        H934   0.992       .  S
O931        H935   0.992       .  S
C937        C938   1.401       .  A
C937        C942   1.402       .  A
C937        H947   1.084   1_565  S
C938        C943   1.480       .  S
C938        C939   1.405       .  A
C939        C940   1.403       .  A
C939        O944   1.372       .  S
C940        C941   1.409       .  A
C940        H945   1.083       .  S
C941        C942   1.416       .  A
C942        O946   1.371   1_565  S
C943        C948   1.401       .  A
C943        C952   1.398       .  A
O944        H960   0.992       .  S
O946        H957   0.992       .  S
C948        C949   1.397       .  A
C948        O953   1.372       .  S
C949        C950   1.417       .  A
C949        H954   1.079       .  S
C950        C951   1.426       .  A
C951        C952   1.405       .  A
C951        O955   1.372       .  S
C952        H956   1.083       .  S
O953        H958   0.992       .  S
O955        H959   0.992       .  S
C961        C962   1.395       .  A
C961        C966   1.400       .  A
C961        H971   1.084       .  S
C962        C967   1.478       .  S
C962        C963   1.403       .  A
C963        C964   1.403       .  A
C963        O968   1.371       .  S
C964        C965   1.415       .  A
C964        H969   1.081       .  S
C965        C966   1.429       .  A
C966        O970   1.372       .  S
C967        C972   1.400       .  A
C967        C976   1.397       .  A
O968        H984   0.992       .  S
O970        H981   0.992       .  S
C972        C973   1.396       .  A
C972        O977   1.372       .  S
C973        C974   1.416       .  A
C973        H978   1.082       .  S
C974        C975   1.430       .  A
C975        C976   1.407       .  A
C975        O979   1.372       .  S
C976        H980   1.084       .  S
O977        H982   0.992       .  S
O979        H983   0.993       .  S
C985        C986   1.399       .  A
C985        C990   1.403       .  A
C985        H995   1.084   1_565  S
C986        C991   1.485       .  S
C986        C987   1.403       .  A
C987        C988   1.403       .  A
C987        O992   1.372       .  S
C988        C989   1.418       .  A
C988        H993   1.078       .  S
C989        C990   1.425       .  A
C990        O994   1.372   1_565  S
C991        C996   1.408       .  A
C991       C1000   1.404       .  A
O992       H1008   0.992       .  S
O994       H1005   0.992       .  S
C996        C997   1.400       .  A
C996       O1001   1.372       .  S
C997        C998   1.406       .  A
C997       H1002   1.083       .  S
C998        C999   1.412       .  A
C999       C1000   1.404       .  A
C999       O1003   1.371   1_565  S
C1000      H1004   1.084   1_565  S
O1001      H1006   0.992       .  S
O1003      H1007   0.992       .  S
C1009      C1010   1.396       .  A
C1009      C1014   1.395   1_545  A
C1009      H1019   1.084       .  S
C1010      C1015   1.482       .  S
C1010      C1011   1.405       .  A
C1011      C1012   1.405       .  A
C1011      O1016   1.372       .  S
C1012      C1013   1.416   1_545  A
C1012      H1017   1.079       .  S
C1013      C1014   1.425       .  A
C1014      O1018   1.372       .  S
C1015      C1020   1.403       .  A
C1015      C1024   1.398       .  A
O1016      H1032   0.992       .  S
O1018      H1029   0.992       .  S
C1020      C1021   1.399       .  A
C1020      O1025   1.372       .  S
C1021      C1022   1.418       .  A
C1021      H1026   1.083       .  S
C1022      C1023   1.426       .  A
C1023      C1024   1.401       .  A
C1023      O1027   1.372       .  S
C1024      H1028   1.084       .  S
O1025      H1030   0.992       .  S
O1027      H1031   0.992       .  S
C1033      C1034   1.401       .  A
C1033      C1038   1.401       .  A
C1033      H1043   1.084       .  S
C1034      C1039   1.497       .  S
C1034      C1035   1.407       .  A
C1035      C1036   1.405       .  A
C1035      O1040   1.371       .  S
C1036      C1037   1.417       .  A
C1036      H1041   1.080       .  S
C1037      C1038   1.426       .  A
C1038      O1042   1.372       .  S
C1039      C1044   1.406       .  A
C1039      C1048   1.405       .  A
O1040      H1056   0.992   1_565  S
O1042      H1053   0.992       .  S
C1044      C1045   1.396       .  A
C1044      O1049   1.372       .  S
C1045      C1046   1.418       .  A
C1045      H1050   1.081       .  S
C1046      C1047   1.423       .  A
C1047      C1048   1.409       .  A
C1047      O1051   1.370       .  S
C1048      H1052   1.083       .  S
O1049      H1054   0.992   1_565  S
O1051      H1055   0.992       .  S
C1057      C1058   1.404       .  A
C1057      C1062   1.405       .  A
C1057      H1067   1.084       .  S
C1058      C1063   1.487       .  S
C1058      C1059   1.407       .  A
C1059      C1060   1.402       .  A
C1059      O1064   1.372   1_565  S
C1060      C1061   1.407       .  A
C1060      H1065   1.083   1_565  S
C1061      C1062   1.413       .  A
C1062      O1066   1.372       .  S
C1063      C1068   1.409       .  A
C1063      C1072   1.403       .  A
O1064      H1080   0.992       .  S
O1066      H1077   0.992       .  S
C1068      C1069   1.402       .  A
C1068      O1073   1.372   1_565  S
C1069      C1070   1.405       .  A
C1069      H1074   1.084   1_565  S
C1070      C1071   1.411       .  A
C1071      C1072   1.403       .  A
C1071      O1075   1.371       .  S
C1072      H1076   1.084       .  S
O1073      H1078   0.992   1_545  S
O1075      H1079   0.992       .  S
C1081      C1082   1.403       .  A
C1081      C1086   1.402       .  A
C1081      H1091   1.084       .  S
C1082      C1087   1.489       .  S
C1082      C1083   1.410       .  A
C1083      C1084   1.404       .  A
C1083      O1088   1.373   1_565  S
C1084      C1085   1.406       .  A
C1084      H1089   1.083   1_565  S
C1085      C1086   1.412       .  A
C1086      O1090   1.371       .  S
C1087      C1092   1.410       .  A
C1087      C1096   1.406       .  A
O1088      H1104   0.992       .  S
O1090      H1101   0.992       .  S
C1092      C1093   1.399       .  A
C1092      O1097   1.371   1_565  S
C1093      C1094   1.404       .  A
C1093      H1098   1.084   1_565  S
C1094      C1095   1.411       .  A
C1095      C1096   1.403       .  A
C1095      O1099   1.372       .  S
C1096      H1100   1.084       .  S
O1097      H1102   0.992       .  S
O1099      H1103   0.992       .  S
C1105      C1106   1.400       .  A
C1105      C1110   1.401       .  A
C1105      H1115   1.084       .  S
C1106      C1111   1.488       .  S
C1106      C1107   1.405       .  A
C1107      C1108   1.404       .  A
C1107      O1112   1.372   1_565  S
C1108      C1109   1.418       .  A
C1108      H1113   1.079   1_565  S
C1109      C1110   1.422       .  A
C1110      O1114   1.372       .  S
C1111      C1116   1.409       .  A
C1111      C1120   1.403       .  A
O1112      H1128   0.992       .  S
O1114      H1125   0.992       .  S
C1116      C1117   1.403       .  A
C1116      O1121   1.371   1_565  S
C1117      C1118   1.408       .  A
C1117      H1122   1.083   1_565  S
C1118      C1119   1.414       .  A
C1119      C1120   1.403       .  A
C1119      O1123   1.372       .  S
C1120      H1124   1.084       .  S
O1121      H1126   0.992       .  S
O1123      H1127   0.992       .  S
C1129      C1130   1.404   1_545  A
C1129      C1134   1.401       .  A
C1129      H1139   1.083       .  S
C1130      C1135   1.493       .  S
C1130      C1131   1.412       .  A
C1131      C1132   1.402       .  A
C1131      O1136   1.372       .  S
C1132      C1133   1.406       .  A
C1132      H1137   1.083       .  S
C1133      C1134   1.414   1_565  A
C1134      O1138   1.372       .  S
C1135      C1140   1.408       .  A
C1135      C1144   1.400       .  A
O1136      H1152   0.992       .  S
O1138      H1149   0.992       .  S
C1140      C1141   1.402       .  A
C1140      O1145   1.371   1_565  S
C1141      C1142   1.415       .  A
C1141      H1146   1.078   1_565  S
C1142      C1143   1.425       .  A
C1143      C1144   1.399       .  A
C1143      O1147   1.373       .  S
C1144      H1148   1.083       .  S
O1145      H1150   0.992       .  S
O1147      H1151   0.992       .  S
C1153      C1154   1.397       .  A
C1153      C1158   1.396       .  A
C1153      H1163   1.083       .  S
C1154      C1159   1.482       .  S
C1154      C1155   1.406       .  A
C1155      C1156   1.402       .  A
C1155      O1160   1.371       .  S
C1156      C1157   1.414       .  A
C1156      H1161   1.079       .  S
C1157      C1158   1.425       .  A
C1158      O1162   1.372       .  S
C1159      C1164   1.403       .  A
C1159      C1168   1.399       .  A
O1160      H1176   0.992       .  S
O1162      H1173   0.992       .  S
C1164      C1165   1.399       .  A
C1164      O1169   1.373       .  S
C1165      C1166   1.418       .  A
C1165      H1170   1.079       .  S
C1166      C1167   1.423       .  A
C1167      C1168   1.400       .  A
C1167      O1171   1.372       .  S
C1168      H1172   1.084       .  S
O1169      H1174   0.992       .  S
O1171      H1175   0.992       .  S
C1177      C1178   1.402       .  A
C1177      C1182   1.402       .  A
C1177      H1187   1.083       .  S
C1178      C1183   1.496       .  S
C1178      C1179   1.406       .  A
C1179      C1180   1.401       .  A
C1179      O1184   1.372       .  S
C1180      C1181   1.419       .  A
C1180      H1185   1.083       .  S
C1181      C1182   1.427       .  A
C1182      O1186   1.370       .  S
C1183      C1188   1.406       .  A
C1183      C1192   1.403       .  A
O1184      H1200   0.992       .  S
O1186      H1197   0.991       .  S
C1188      C1189   1.399       .  A
C1188      O1193   1.373       .  S
C1189      C1190   1.416       .  A
C1189      H1194   1.083       .  S
C1190      C1191   1.426       .  A
C1191      C1192   1.409       .  A
C1191      O1195   1.372       .  S
C1192      H1196   1.083       .  S
O1193      H1198   0.992       .  S
O1195      H1199   0.992       .  S
C1201      C1202   1.398       .  A
C1201      C1206   1.398       .  A
C1201      H1211   1.084       .  S
C1202      C1207   1.482       .  S
C1202      C1203   1.402       .  A
C1203      C1204   1.404       .  A
C1203      O1208   1.371       .  S
C1204      C1205   1.419       .  A
C1204      H1209   1.083       .  S
C1205      C1206   1.427       .  A
C1206      O1210   1.370       .  S
C1207      C1212   1.403       .  A
C1207      C1216   1.401       .  A
O1208      H1224   0.992       .  S
O1210      H1221   0.991       .  S
C1212      C1213   1.394       .  A
C1212      O1217   1.373       .  S
C1213      C1214   1.416       .  A
C1213      H1218   1.083       .  S
C1214      C1215   1.426       .  A
C1215      C1216   1.408       .  A
C1215      O1219   1.370       .  S
C1216      H1220   1.083       .  S
O1217      H1222   0.992       .  S
O1219      H1223   0.992       .  S
C1225      C1226   1.401       .  A
C1225      C1230   1.407       .  A
C1225      H1235   1.083       .  S
C1226      C1231   1.482       .  S
C1226      C1227   1.399       .  A
C1227      C1228   1.397       .  A
C1227      O1232   1.372       .  S
C1228      C1229   1.421       .  A
C1228      H1233   1.080   1_556  S
C1229      C1230   1.422       .  A
C1230      O1234   1.370       .  S
C1231      C1236   1.400       .  A
C1231      C1240   1.399       .  A
O1232      H1248   0.992       .  S
O1234      H1245   0.992       .  S
C1236      C1237   1.402       .  A
C1236      O1241   1.371       .  S
C1237      C1238   1.421       .  A
C1237      H1242   1.079       .  S
C1238      C1239   1.425       .  A
C1239      C1240   1.404       .  A
C1239      O1243   1.373       .  S
C1240      H1244   1.084       .  S
O1241      H1246   0.991       .  S
O1243      H1247   0.992       .  S
C1249      C1250   1.403   1_554  A
C1249      C1254   1.402       .  A
C1249      H1259   1.084       .  S
C1250      C1255   1.484       .  S
C1250      C1251   1.407       .  A
C1251      C1252   1.403       .  A
C1251      O1256   1.372       .  S
C1252      C1253   1.406       .  A
C1252      H1257   1.083       .  S
C1253      C1254   1.413   1_556  A
C1254      O1258   1.371       .  S
C1255      C1260   1.402       .  A
C1255      C1264   1.399   1_556  A
O1256      H1272   0.992       .  S
O1258      H1269   0.992       .  S
C1260      C1261   1.402       .  A
C1260      O1265   1.372       .  S
C1261      C1262   1.418   1_556  A
C1261      H1266   1.078       .  S
C1262      C1263   1.424       .  A
C1263      C1264   1.403       .  A
C1263      O1267   1.372       .  S
C1264      H1268   1.084       .  S
O1265      H1270   0.992       .  S
O1267      H1271   0.992       .  S
C1273      C1274   1.396       .  A
C1273      C1278   1.402       .  A
C1273      H1283   1.084       .  S
C1274      C1279   1.479       .  S
C1274      C1275   1.401   1_556  A
C1275      C1276   1.403       .  A
C1275      O1280   1.371       .  S
C1276      C1277   1.418       .  A
C1276      H1281   1.083       .  S
C1277      C1278   1.429   1_554  A
C1278      O1282   1.371       .  S
C1279      C1284   1.401   1_556  A
C1279      C1288   1.395       .  A
O1280      H1296   0.992       .  S
O1282      H1293   0.992       .  S
C1284      C1285   1.401       .  A
C1284      O1289   1.371       .  S
C1285      C1286   1.417   1_554  A
C1285      H1290   1.083       .  S
C1286      C1287   1.431       .  A
C1287      C1288   1.403       .  A
C1287      O1291   1.371       .  S
C1288      H1292   1.084       .  S
O1289      H1294   0.992       .  S
O1291      H1295   0.992       .  S
C1297      C1298   1.397       .  A
C1297      C1302   1.404       .  A
C1297      H1307   1.084       .  S
C1298      C1303   1.478       .  S
C1298      C1299   1.400       .  A
C1299      C1300   1.397       .  A
C1299      O1304   1.373       .  S
C1300      C1301   1.418       .  A
C1300      H1305   1.077   1_554  S
C1301      C1302   1.427       .  A
C1302      O1306   1.372       .  S
C1303      C1308   1.399       .  A
C1303      C1312   1.397       .  A
O1304      H1320   0.991       .  S
O1306      H1317   0.992       .  S
C1308      C1309   1.394       .  A
C1308      O1313   1.372       .  S
C1309      C1310   1.418       .  A
C1309      H1314   1.082   1_545  S
C1310      C1311   1.430       .  A
C1311      C1312   1.407       .  A
C1311      O1315   1.372       .  S
C1312      H1316   1.084       .  S
O1313      H1318   0.992       .  S
O1315      H1319   0.993       .  S
C1321      C1322   1.396       .  A
C1321      C1326   1.395   1_545  A
C1321      H1331   1.083       .  S
C1322      C1327   1.489       .  S
C1322      C1323   1.407       .  A
C1323      C1324   1.407       .  A
C1323      O1328   1.371       .  S
C1324      C1325   1.418       .  A
C1324      H1329   1.083       .  S
C1325      C1326   1.430   1_545  A
C1326      O1330   1.372       .  S
C1327      C1332   1.406       .  A
C1327      C1336   1.402       .  A
O1328      H1344   0.991       .  S
O1330      H1341   0.994       .  S
C1332      C1333   1.398       .  A
C1332      O1337   1.374       .  S
C1333      C1334   1.414       .  A
C1333      H1338   1.081       .  S
C1334      C1335   1.425       .  A
C1335      C1336   1.406       .  A
C1335      O1339   1.370       .  S
C1336      H1340   1.083       .  S
O1337      H1342   0.992       .  S
O1339      H1343   0.991       .  S
C1345      C1346   1.398       .  A
C1345      C1350   1.405       .  A
C1345      H1355   1.084       .  S
C1346      C1351   1.481       .  S
C1346      C1347   1.402       .  A
C1347      C1348   1.396       .  A
C1347      O1352   1.373       .  S
C1348      C1349   1.416       .  A
C1348      H1353   1.083       .  S
C1349      C1350   1.429       .  A
C1350      O1354   1.372       .  S
C1351      C1356   1.404       .  A
C1351      C1360   1.400       .  A
O1352      H1368   0.992       .  S
O1354      H1365   0.993       .  S
C1356      C1357   1.399       .  A
C1356      O1361   1.374       .  S
C1357      C1358   1.415       .  A
C1357      H1362   1.080       .  S
C1358      C1359   1.422       .  A
C1359      C1360   1.400       .  A
C1359      O1363   1.372       .  S
C1360      H1364   1.084       .  S
O1361      H1366   0.992       .  S
O1363      H1367   0.992       .  S
C1369      C1370   1.399       .  A
C1369      C1374   1.405       .  A
C1369      H1379   1.083       .  S
C1370      C1375   1.477       .  S
C1370      C1371   1.398       .  A
C1371      C1372   1.392       .  A
C1371      O1376   1.373       .  S
C1372      C1373   1.421       .  A
C1372      H1377   1.079       .  S
C1373      C1374   1.424       .  A
C1374      O1378   1.371       .  S
C1375      C1380   1.400       .  A
C1375      C1384   1.397       .  A
O1376      H1392   0.992       .  S
O1378      H1389   0.992       .  S
C1380      C1381   1.400       .  A
C1380      O1385   1.372       .  S
C1381      C1382   1.419       .  A
C1381      H1386   1.077       .  S
C1382      C1383   1.425       .  A
C1383      C1384   1.399       .  A
C1383      O1387   1.372       .  S
C1384      H1388   1.084       .  S
O1385      H1390   0.992       .  S
O1387      H1391   0.994       .  S
C1393      C1394   1.397       .  A
C1393      C1398   1.398       .  A
C1393      H1403   1.084       .  S
C1394      C1399   1.475       .  S
C1394      C1395   1.398       .  A
C1395      C1396   1.398       .  A
C1395      O1400   1.372       .  S
C1396      C1397   1.420       .  A
C1396      H1401   1.083       .  S
C1397      C1398   1.428       .  A
C1398      O1402   1.370       .  S
C1399      C1404   1.406   1_556  A
C1399      C1408   1.400       .  A
O1400      H1416   0.992   1_556  S
O1402      H1413   0.991       .  S
C1404      C1405   1.400       .  A
C1404      O1409   1.372       .  S
C1405      C1406   1.406   1_554  A
C1405      H1410   1.083       .  S
C1406      C1407   1.414       .  A
C1407      C1408   1.397       .  A
C1407      O1411   1.372       .  S
C1408      H1412   1.084       .  S
O1409      H1414   0.992       .  S
O1411      H1415   0.992       .  S
C1417      C1418   1.396   1_554  A
C1417      C1422   1.401       .  A
C1417      H1427   1.084       .  S
C1418      C1423   1.478       .  S
C1418      C1419   1.401       .  A
C1419      C1420   1.399       .  A
C1419      O1424   1.372       .  S
C1420      C1421   1.417       .  A
C1420      H1425   1.083       .  S
C1421      C1422   1.428   1_556  A
C1422      O1426   1.370       .  S
C1423      C1428   1.402       .  A
C1423      C1432   1.396   1_556  A
O1424      H1440   0.992       .  S
O1426      H1437   0.991       .  S
C1428      C1429   1.401       .  A
C1428      O1433   1.372       .  S
C1429      C1430   1.416       .  A
C1429      H1434   1.078       .  S
C1430      C1431   1.426   1_556  A
C1431      C1432   1.400       .  A
C1431      O1435   1.372       .  S
C1432      H1436   1.084       .  S
O1433      H1438   0.991       .  S
O1435      H1439   0.992       .  S
C1441      C1442   1.403   1_554  A
C1441      C1446   1.402       .  A
C1441      H1451   1.083       .  S
C1442      C1447   1.489       .  S
C1442      C1443   1.409       .  A
C1443      C1444   1.402       .  A
C1443      O1448   1.372       .  S
C1444      C1445   1.407       .  A
C1444      H1449   1.083       .  S
C1445      C1446   1.415   1_556  A
C1446      O1450   1.371       .  S
C1447      C1452   1.410   1_556  A
C1447      C1456   1.405       .  A
O1448      H1464   0.992       .  S
O1450      H1461   0.992       .  S
C1452      C1453   1.403       .  A
C1452      O1457   1.372       .  S
C1453      C1454   1.404   1_554  A
C1453      H1458   1.084       .  S
C1454      C1455   1.410       .  A
C1455      C1456   1.403       .  A
C1455      O1459   1.372       .  S
C1456      H1460   1.084       .  S
O1457      H1462   0.992       .  S
O1459      H1463   0.992       .  S
C1465      C1466   1.403   1_556  A
C1465      C1470   1.402       .  A
C1465      H1475   1.084       .  S
C1466      C1471   1.486       .  S
C1466      C1467   1.408       .  A
C1467      C1468   1.403       .  A
C1467      O1472   1.373       .  S
C1468      C1469   1.408       .  A
C1468      H1473   1.083       .  S
C1469      C1470   1.412   1_554  A
C1470      O1474   1.371       .  S
C1471      C1476   1.404       .  A
C1471      C1480   1.400   1_554  A
O1472      H1488   0.992       .  S
O1474      H1485   0.992       .  S
C1476      C1477   1.398       .  A
C1476      O1481   1.372       .  S
C1477      C1478   1.417   1_554  A
C1477      H1482   1.079       .  S
C1478      C1479   1.424       .  A
C1479      C1480   1.404       .  A
C1479      O1483   1.372       .  S
C1480      H1484   1.084       .  S
O1481      H1486   0.992   1_554  S
O1483      H1487   0.992   1_556  S
C1489      C1490   1.399       .  A
C1489      C1494   1.399       .  A
C1489      H1499   1.084       .  S
C1490      C1495   1.482       .  S
C1490      C1491   1.403       .  A
C1491      C1492   1.401       .  A
C1491      O1496   1.373       .  S
C1492      C1493   1.417       .  A
C1492      H1497   1.079       .  S
C1493      C1494   1.423       .  A
C1494      O1498   1.370       .  S
C1495      C1500   1.404       .  A
C1495      C1504   1.398       .  A
O1496      H1512   0.992       .  S
O1498      H1509   0.992       .  S
C1500      C1501   1.396       .  A
C1500      O1505   1.372       .  S
C1501      C1502   1.417       .  A
C1501      H1506   1.084       .  S
C1502      C1503   1.430       .  A
C1503      C1504   1.403       .  A
C1503      O1507   1.371       .  S
C1504      H1508   1.084       .  S
O1505      H1510   0.992       .  S
O1507      H1511   0.992       .  S
C1513      C1514   1.397       .  A
C1513      C1518   1.402       .  A
C1513      H1523   1.084       .  S
C1514      C1519   1.475       .  S
C1514      C1515   1.399       .  A
C1515      C1516   1.395       .  A
C1515      O1520   1.373       .  S
C1516      C1517   1.419       .  A
C1516      H1521   1.076   1_554  S
C1517      C1518   1.425       .  A
C1518      O1522   1.371       .  S
C1519      C1524   1.400       .  A
C1519      C1528   1.397       .  A
O1520      H1536   0.991       .  S
O1522      H1533   0.991       .  S
C1524      C1525   1.397       .  A
C1524      O1529   1.372       .  S
C1525      C1526   1.418       .  A
C1525      H1530   1.079       .  S
C1526      C1527   1.424       .  A
C1527      C1528   1.400       .  A
C1527      O1531   1.373       .  S
C1528      H1532   1.084       .  S
O1529      H1534   0.991       .  S
O1531      H1535   0.992       .  S
C1537      C1538   1.398       .  A
C1537      C1542   1.403       .  A
C1537      H1547   1.084       .  S
C1538      C1543   1.483       .  S
C1538      C1539   1.404       .  A
C1539      C1540   1.397       .  A
C1539      O1544   1.372       .  S
C1540      C1541   1.417   1_545  A
C1540      H1545   1.077       .  S
C1541      C1542   1.427   1_565  A
C1542      O1546   1.373   1_545  S
C1543      C1548   1.405       .  A
C1543      C1552   1.397       .  A
O1544      H1560   0.992       .  S
O1546      H1557   0.992       .  S
C1548      C1549   1.405       .  A
C1548      O1553   1.371       .  S
C1549      C1550   1.418       .  A
C1549      H1554   1.079       .  S
C1550      C1551   1.425       .  A
C1551      C1552   1.397       .  A
C1551      O1555   1.373       .  S
C1552      H1556   1.084       .  S
O1553      H1558   0.992       .  S
O1555      H1559   0.992       .  S
C1561      C1562   1.396       .  A
C1561      C1566   1.397   1_545  A
C1561      H1571   1.084       .  S
C1562      C1567   1.481       .  S
C1562      C1563   1.403       .  A
C1563      C1564   1.403       .  A
C1563      O1568   1.372       .  S
C1564      C1565   1.417   1_545  A
C1564      H1569   1.082       .  S
C1565      C1566   1.428       .  A
C1566      O1570   1.372       .  S
C1567      C1572   1.405       .  A
C1567      C1576   1.397       .  A
O1568      H1584   0.992       .  S
O1570      H1581   0.990       .  S
C1572      C1573   1.400       .  A
C1572      O1577   1.372       .  S
C1573      C1574   1.417       .  A
C1573      H1578   1.079       .  S
C1574      C1575   1.425       .  A
C1575      C1576   1.398       .  A
C1575      O1579   1.373       .  S
C1576      H1580   1.084       .  S
O1577      H1582   0.992       .  S
O1579      H1583   0.992       .  S
C1585      C1586   1.400   1_554  A
C1585      C1590   1.401       .  A
C1585      H1595   1.084       .  S
C1586      C1591   1.494       .  S
C1586      C1587   1.407       .  A
C1587      C1588   1.405       .  A
C1587      O1592   1.372       .  S
C1588      C1589   1.417   1_556  A
C1588      H1593   1.083       .  S
C1589      C1590   1.428       .  A
C1590      O1594   1.371       .  S
C1591      C1596   1.411       .  A
C1591      C1600   1.405   1_556  A
O1592      H1608   0.992       .  S
O1594      H1605   0.991       .  S
C1596      C1597   1.406       .  A
C1596      O1601   1.371       .  S
C1597      C1598   1.408       .  A
C1597      H1602   1.083       .  S
C1598      C1599   1.412   1_556  A
C1599      C1600   1.399       .  A
C1599      O1603   1.371       .  S
C1600      H1604   1.084       .  S
O1601      H1606   0.992       .  S
O1603      H1607   0.992       .  S
C1609      C1610   1.400   1_554  A
C1609      C1614   1.406       .  A
C1609      H1619   1.084       .  S
C1610      C1615   1.485       .  S
C1610      C1611   1.401       .  A
C1611      C1612   1.399       .  A
C1611      O1616   1.373       .  S
C1612      C1613   1.420   1_556  A
C1612      H1617   1.079       .  S
C1613      C1614   1.422       .  A
C1614      O1618   1.372       .  S
C1615      C1620   1.404       .  A
C1615      C1624   1.398   1_556  A
O1616      H1632   0.992       .  S
O1618      H1629   0.992       .  S
C1620      C1621   1.399       .  A
C1620      O1625   1.371       .  S
C1621      C1622   1.416       .  A
C1621      H1626   1.084       .  S
C1622      C1623   1.429   1_556  A
C1623      C1624   1.403       .  A
C1623      O1627   1.371       .  S
C1624      H1628   1.084       .  S
O1625      H1630   0.992       .  S
O1627      H1631   0.992       .  S
C1633      C1634   1.404       .  A
C1633      C1638   1.401       .  A
C1633      H1643   1.083       .  S
C1634      C1639   1.487       .  S
C1634      C1635   1.411   1_556  A
C1635      C1636   1.400       .  A
C1635      O1640   1.372       .  S
C1636      C1637   1.403   1_554  A
C1636      H1641   1.084       .  S
C1637      C1638   1.410       .  A
C1638      O1642   1.372       .  S
C1639      C1644   1.410       .  A
C1639      C1648   1.402   1_556  A
O1640      H1656   0.992       .  S
O1642      H1653   0.992       .  S
C1644      C1645   1.404       .  A
C1644      O1649   1.372       .  S
C1645      C1646   1.407       .  A
C1645      H1650   1.083       .  S
C1646      C1647   1.415   1_556  A
C1647      C1648   1.398       .  A
C1647      O1651   1.372       .  S
C1648      H1652   1.084       .  S
O1649      H1654   0.992       .  S
O1651      H1655   0.992       .  S
C1657      C1658   1.401       .  A
C1657      C1662   1.402       .  A
C1657      H1667   1.084       .  S
C1658      C1663   1.481       .  S
C1658      C1659   1.405   1_554  A
C1659      C1660   1.403       .  A
C1659      O1664   1.372       .  S
C1660      C1661   1.409   1_556  A
C1660      H1665   1.083       .  S
C1661      C1662   1.415       .  A
C1662      O1666   1.371       .  S
C1663      C1668   1.401   1_554  A
C1663      C1672   1.397       .  A
O1664      H1680   0.991       .  S
O1666      H1677   0.992       .  S
C1668      C1669   1.402       .  A
C1668      O1673   1.372       .  S
C1669      C1670   1.420   1_556  A
C1669      H1674   1.084       .  S
C1670      C1671   1.429       .  A
C1671      C1672   1.402       .  A
C1671      O1675   1.371       .  S
C1672      H1676   1.084       .  S
O1673      H1678   0.993       .  S
O1675      H1679   0.992       .  S
C1681      C1682   1.397       .  A
C1681      C1686   1.396       .  A
C1681      H1691   1.084       .  S
C1682      C1687   1.486       .  S
C1682      C1683   1.406       .  A
C1683      C1684   1.407       .  A
C1683      O1688   1.371       .  S
C1684      C1685   1.416       .  A
C1684      H1689   1.079       .  S
C1685      C1686   1.426       .  A
C1686      O1690   1.373       .  S
C1687      C1692   1.404       .  A
C1687      C1696   1.401       .  A
O1688      H1704   0.992       .  S
O1690      H1701   0.992       .  S
C1692      C1693   1.392       .  A
C1692      O1697   1.373       .  S
C1693      C1694   1.417       .  A
C1693      H1698   1.078   1_556  S
C1694      C1695   1.425       .  A
C1695      C1696   1.409       .  A
C1695      O1699   1.374       .  S
C1696      H1700   1.083       .  S
O1697      H1702   0.993       .  S
O1699      H1703   0.992       .  S
C1705      C1706   1.403       .  A
C1705      C1710   1.395       .  A
C1705      H1715   1.081       .  S
C1706      C1711   1.506       .  S
C1706      C1707   1.414       .  A
C1707      C1708   1.403       .  A
C1707      O1712   1.371       .  S
C1708      C1709   1.414       .  A
C1708      H1713   1.075       .  S
C1709      C1710   1.426       .  A
C1710      O1714   1.371       .  S
C1711      C1716   1.411       .  A
C1711      C1720   1.406       .  A
O1712      H1728   0.991       .  S
O1714      H1725   0.991       .  S
C1716      C1717   1.396       .  A
C1716      O1721   1.374       .  S
C1717      C1718   1.417       .  A
C1717      H1722   1.083       .  S
C1718      C1719   1.424       .  A
C1719      C1720   1.409       .  A
C1719      O1723   1.372       .  S
C1720      H1724   1.080       .  S
O1721      H1726   0.993       .  S
O1723      H1727   0.991       .  S
C1729      C1730   1.393       .  A
C1729      C1734   1.401       .  A
C1729      H1739   1.084       .  S
C1730      C1735   1.477       .  S
C1730      C1731   1.401       .  A
C1731      C1732   1.399       .  A
C1731      O1736   1.371       .  S
C1732      C1733   1.418       .  A
C1732      H1737   1.083       .  S
C1733      C1734   1.433       .  A
C1734      O1738   1.371       .  S
C1735      C1740   1.402       .  A
C1735      C1744   1.394       .  A
O1736      H1752   0.992       .  S
O1738      H1749   0.992       .  S
C1740      C1741   1.401       .  A
C1740      O1745   1.371       .  S
C1741      C1742   1.417       .  A
C1741      H1746   1.082       .  S
C1742      C1743   1.431       .  A
C1743      C1744   1.398       .  A
C1743      O1747   1.371   1_556  S
C1744      H1748   1.084       .  S
O1745      H1750   0.992       .  S
O1747      H1751   0.992       .  S
C1753      C1754   1.396   1_556  A
C1753      C1758   1.401       .  A
C1753      H1763   1.084       .  S
C1754      C1759   1.478       .  S
C1754      C1755   1.400       .  A
C1755      C1756   1.401       .  A
C1755      O1760   1.371       .  S
C1756      C1757   1.417       .  A
C1756      H1761   1.081       .  S
C1757      C1758   1.429   1_554  A
C1758      O1762   1.370       .  S
C1759      C1764   1.405       .  A
C1759      C1768   1.400   1_554  A
O1760      H1776   0.992       .  S
O1762      H1773   0.992       .  S
C1764      C1765   1.400       .  A
C1764      O1769   1.372       .  S
C1765      C1766   1.409   1_554  A
C1765      H1770   1.083       .  S
C1766      C1767   1.415       .  A
C1767      C1768   1.401       .  A
C1767      O1771   1.371       .  S
C1768      H1772   1.084       .  S
O1769      H1774   0.992       .  S
O1771      H1775   0.992       .  S
C1777      C1778   1.395       .  A
C1777      C1782   1.395       .  A
C1777      H1787   1.084       .  S
C1778      C1783   1.475       .  S
C1778      C1779   1.401       .  A
C1779      C1780   1.403       .  A
C1779      O1784   1.371       .  S
C1780      C1781   1.420       .  A
C1780      H1785   1.078       .  S
C1781      C1782   1.425       .  A
C1782      O1786   1.371       .  S
C1783      C1788   1.402       .  A
C1783      C1792   1.397       .  A
O1784      H1800   0.992       .  S
O1786      H1797   0.993       .  S
C1788      C1789   1.398       .  A
C1788      O1793   1.372       .  S
C1789      C1790   1.418       .  A
C1789      H1794   1.083       .  S
C1790      C1791   1.425       .  A
C1791      C1792   1.403       .  A
C1791      O1795   1.374       .  S
C1792      H1796   1.084       .  S
O1793      H1798   0.993       .  S
O1795      H1799   0.993       .  S
C1801      C1802   1.400       .  A
C1801      C1806   1.398       .  A
C1801      H1811   1.083       .  S
C1802      C1807   1.488   1_554  S
C1802      C1803   1.406   1_554  A
C1803      C1804   1.403       .  A
C1803      O1808   1.371       .  S
C1804      C1805   1.418   1_556  A
C1804      H1809   1.079       .  S
C1805      C1806   1.422       .  A
C1806      O1810   1.371       .  S
C1807      C1812   1.404       .  A
C1807      C1816   1.401       .  A
O1808      H1824   0.992       .  S
O1810      H1821   0.992       .  S
C1812      C1813   1.398       .  A
C1812      O1817   1.373       .  S
C1813      C1814   1.418   1_556  A
C1813      H1818   1.078       .  S
C1814      C1815   1.425   1_554  A
C1815      C1816   1.405       .  A
C1815      O1819   1.372       .  S
C1816      H1820   1.083       .  S
O1817      H1822   0.992   1_556  S
O1819      H1823   0.992       .  S
C1825      C1826   1.405       .  A
C1825      C1830   1.404       .  A
C1825      H1835   1.083       .  S
C1826      C1831   1.488       .  S
C1826      C1827   1.409   1_556  A
C1827      C1828   1.399       .  A
C1827      O1832   1.372       .  S
C1828      C1829   1.405   1_554  A
C1828      H1833   1.083       .  S
C1829      C1830   1.413       .  A
C1830      O1834   1.372       .  S
C1831      C1836   1.409       .  A
C1831      C1840   1.404   1_556  A
O1832      H1848   0.992       .  S
O1834      H1845   0.992       .  S
C1836      C1837   1.403       .  A
C1836      O1841   1.372       .  S
C1837      C1838   1.406       .  A
C1837      H1842   1.083       .  S
C1838      C1839   1.411   1_556  A
C1839      C1840   1.402       .  A
C1839      O1843   1.372       .  S
C1840      H1844   1.084       .  S
O1841      H1846   0.991       .  S
O1843      H1847   0.992       .  S
C1849      C1850   1.400       .  A
C1849      C1854   1.395       .  A
C1849      H1859   1.084       .  S
C1850      C1855   1.479       .  S
C1850      C1851   1.409   1_556  A
C1851      C1852   1.401       .  A
C1851      O1856   1.373       .  S
C1852      C1853   1.405   1_554  A
C1852      H1857   1.083       .  S
C1853      C1854   1.413       .  A
C1854      O1858   1.372       .  S
C1855      C1860   1.407   1_556  A
C1855      C1864   1.405       .  A
O1856      H1872   0.992       .  S
O1858      H1869   0.992       .  S
C1860      C1861   1.395       .  A
C1860      O1865   1.371       .  S
C1861      C1862   1.404   1_554  A
C1861      H1866   1.084       .  S
C1862      C1863   1.409       .  A
C1863      C1864   1.399       .  A
C1863      O1867   1.372       .  S
C1864      H1868   1.084       .  S
O1865      H1870   0.992       .  S
O1867      H1871   0.992       .  S
C1873      C1874   1.405       .  A
C1873      C1878   1.403       .  A
C1873      H1883   1.084       .  S
C1874      C1879   1.492       .  S
C1874      C1875   1.410   1_554  A
C1875      C1876   1.404       .  A
C1875      O1880   1.373       .  S
C1876      C1877   1.405   1_556  A
C1876      H1881   1.083       .  S
C1877      C1878   1.412       .  A
C1878      O1882   1.372       .  S
C1879      C1884   1.406   1_554  A
C1879      C1888   1.401       .  A
O1880      H1896   0.992       .  S
O1882      H1893   0.992       .  S
C1884      C1885   1.400       .  A
C1884      O1889   1.371       .  S
C1885      C1886   1.416   1_556  A
C1885      H1890   1.081       .  S
C1886      C1887   1.427       .  A
C1887      C1888   1.407       .  A
C1887      O1891   1.373       .  S
C1888      H1892   1.084       .  S
O1889      H1894   0.992       .  S
O1891      H1895   0.993       .  S
C1897      C1898   1.401       .  A
C1897      C1902   1.403       .  A
C1897      H1907   1.084       .  S
C1898      C1903   1.484       .  S
C1898      C1899   1.403   1_554  A
C1899      C1900   1.397       .  A
C1899      O1904   1.374       .  S
C1900      C1901   1.416   1_556  A
C1900      H1905   1.078       .  S
C1901      C1902   1.424       .  A
C1902      O1906   1.373       .  S
C1903      C1908   1.409   1_554  A
C1903      C1912   1.404       .  A
O1904      H1920   0.992       .  S
O1906      H1917   0.992       .  S
C1908      C1909   1.396       .  A
C1908      O1913   1.372       .  S
C1909      C1910   1.404   1_556  A
C1909      H1914   1.084       .  S
C1910      C1911   1.412       .  A
C1911      C1912   1.402       .  A
C1911      O1915   1.371       .  S
C1912      H1916   1.084       .  S
O1913      H1918   0.992       .  S
O1915      H1919   0.992       .  S
