geometry optimzed in LAMMPS
_audit_creation_date              2020-12-01 
_audit_creation_method            'lammps2cif' 
_symmetry_space_group_name_H-M    'P1' 
_symmetry_Int_Tables_number       1 
_symmetry_cell_setting            triclinic 
loop_ 
_symmetry_equiv_pos_as_xyz 
  x,y,z 
_cell_length_a                    31.15652343 
_cell_length_b                    30.36838577364728 
_cell_length_c                    33.014571862597876 
_cell_angle_alpha                 89.92345375263082 
_cell_angle_beta                  89.95400136102306 
_cell_angle_gamma                 90.19347182207784 
loop_ 
_atom_site_label 
_atom_site_type_symbol 
_atom_site_fract_x 
_atom_site_fract_y 
_atom_site_fract_z 
_atom_site_charge 
Fe1        Fe  0.09055368  0.60128283  0.24936566     1.65800
Fe2        Fe  0.19719590  0.62255531  0.25144379     1.73200
Fe3        Fe  0.12369578  0.70720468  0.24975569     1.54400
O4          O  0.07495532  0.70019079  0.20609785    -0.81800
O5          O  0.21242322  0.66308313  0.29911948    -0.80100
O6          O  0.06628758  0.62781248  0.19747071    -0.84300
O7          O  0.04998196  0.63825076  0.28477217    -0.79200
O8          O  0.16569824  0.71871690  0.20297665    -0.81000
O9          O  0.18370436  0.57313308  0.29411282    -0.83700
C10         C  0.05139368  0.67443327  0.30373136     0.97100
C11         C  0.05982198  0.66729895  0.18670535     1.04500
O12         O  0.13740725  0.64389783  0.25019827    -1.12700
O13         O  0.18890995  0.57977162  0.20316454    -0.75100
O14         O  0.12243413  0.55674886  0.21389396    -0.78600
O15         O  0.08052530  0.70275693  0.29729567    -0.79300
C16         C  0.15784665  0.55419512  0.19526126     0.96000
O17         O  0.11253664  0.57220288  0.30087550    -0.77300
O18         O  0.21781715  0.66915903  0.20961264    -0.82400
C19         C  0.20080961  0.70129258  0.30992275     0.98600
C20         C  0.20163450  0.70282338  0.19252773     1.04500
O21         O  0.17032419  0.72184963  0.29264754    -0.78100
C22         C  0.14964560  0.56058354  0.31231158     1.02800
Fe23       Fe  0.39859359  0.89131263  0.99998224     1.65800
Fe24       Fe  0.29392897  0.86599179  0.50037384     1.73200
Fe25       Fe  0.37036186  0.78446638  0.49930710     1.54400
O26         O  0.41133654  0.79177348  0.45019433    -0.81800
O27         O  0.27601118  0.81856441  0.04284856    -0.80100
O28         O  0.44063529  0.85632275  0.46478555    -0.84300
O29         O  0.42443423  0.86588272  0.05209724    -0.79200
O30         O  0.32241894  0.76782733  0.45835956    -0.81000
O31         O  0.30172369  0.90872219  0.04904316    -0.83700
C32         C  0.43380719  0.82638663  0.06118486     0.97100
C33         C  0.43977096  0.82107604  0.44446326     1.04500
O34         O  0.35430245  0.84715871  0.49995754    -1.12700
O35         O  0.30414805  0.91600960  0.45796827    -0.75100
O36         O  0.37507112  0.91964558  0.44857237    -0.78600
O37         O  0.41996600  0.79336075  0.04118983    -0.79300
C38         C  0.33692651  0.92931944  0.43831831     0.96000
O39         O  0.36585920  0.93579964  0.03461137    -0.77300
O40         O  0.27866961  0.82534504  0.45287331    -0.82400
C41         C  0.29380560  0.78582082  0.05992268     0.98600
C42         C  0.29077977  0.78735511  0.44198344     1.04500
O43         O  0.33001143  0.77101855  0.04875360    -0.78100
C44         C  0.33126822  0.93681468  0.05453451     1.02800
Fe45       Fe  0.90047920  0.60160375  0.49309291     1.65800
Fe46       Fe  0.79365370  0.62416179  0.50070223     1.73200
Fe47       Fe  0.86937373  0.70801397  0.00022887     1.54400
O48         O  0.91362047  0.69982560  0.04672420    -0.81800
O49         O  0.77362911  0.67177946  0.45986416    -0.80100
O50         O  0.94035819  0.63356468  0.03356801    -0.84300
O51         O  0.92750726  0.63385931  0.44511546    -0.79200
O52         O  0.82348058  0.72193274  0.04390190    -0.81000
O53         O  0.79945953  0.58151630  0.45190646    -0.83700
C54         C  0.93327885  0.67394963  0.43624638     0.97100
C55         C  0.94068153  0.66941855  0.05329048     1.04500
O56         O  0.85465470  0.64451762  0.99825201    -1.12700
O57         O  0.80723295  0.57392784  0.04204059    -0.75100
O58         O  0.87811233  0.56466775  0.04089319    -0.78600
O59         O  0.91663856  0.70519128  0.45632135    -0.79300
C60         C  0.84124477  0.55569599  0.05508955     0.96000
O61         O  0.86869669  0.56413389  0.45102627    -0.77300
O62         O  0.78021506  0.66387932  0.04957900    -0.82400
C63         C  0.78959762  0.70623027  0.44375063     0.98600
C64         C  0.79239277  0.70182180  0.06076267     1.04500
O65         O  0.82555000  0.72234248  0.45462668    -0.78100
C66         C  0.83102223  0.56082744  0.43705765     1.02800
Fe67       Fe  0.59245478  0.89210341  0.25062081     1.65800
Fe68       Fe  0.69850905  0.86859719  0.25011255     1.73200
Fe69       Fe  0.62277329  0.78526830  0.24994529     1.54400
O70         O  0.57381088  0.79284458  0.29266667    -0.81800
O71         O  0.71401540  0.82696097  0.20300425    -0.80100
O72         O  0.56654092  0.86529767  0.30184328    -0.84300
O73         O  0.55172981  0.85684508  0.21468524    -0.79200
O74         O  0.66412498  0.77239747  0.29778680    -0.81000
O75         O  0.68740588  0.91740199  0.20691188    -0.83700
C76         C  0.55182956  0.82107381  0.19528229     0.97100
C77         C  0.55907620  0.82572815  0.31203176     1.04500
O78         O  0.63816522  0.84843062  0.25021404    -1.12700
O79         O  0.69053308  0.91275575  0.29769383    -0.75100
O80         O  0.62434222  0.93563155  0.28659056    -0.78600
O81         O  0.57976886  0.79150711  0.20173590    -0.79300
C82         C  0.65966352  0.93862587  0.30507391     0.96000
O83         O  0.61625359  0.92118921  0.19951225    -0.77300
O84         O  0.71638407  0.82250347  0.29289030    -0.82400
C85         C  0.70116114  0.78934243  0.19133551     0.98600
C86         C  0.69965013  0.78882359  0.30953844     1.04500
O87         O  0.66943666  0.76966548  0.20760594    -0.78100
C88         C  0.65412695  0.93107401  0.18847634     1.02800
Fe89       Fe  0.08940602  0.38957220  0.50429195     1.65800
Fe90       Fe  0.19581972  0.36631119  0.50022037     1.73200
Fe91       Fe  0.12024083  0.28349515  0.99938863     1.54400
O92         O  0.07296673  0.28853423  0.04414253    -0.81800
O93         O  0.21039784  0.32644654  0.45151549    -0.80100
O94         O  0.06253693  0.36039242  0.05353249    -0.84300
O95         O  0.04958398  0.35640669  0.46545194    -0.79200
O96         O  0.16339958  0.26902279  0.04488234    -0.81000
O97         O  0.18401964  0.41741379  0.45912157    -0.83700
C98         C  0.04859131  0.32026119  0.44646759     0.97100
C99         C  0.05682314  0.32059136  0.06360307     1.04500
O100        O  0.13538952  0.34693004  0.00090887    -1.12700
O101        O  0.18900819  0.40940703  0.04896900    -0.75100
O102        O  0.12102607  0.43000771  0.04411175    -0.78600
O103        O  0.07569719  0.28996788  0.45302632    -0.79300
C104        C  0.15727396  0.43191866  0.06106700     0.96000
O105        O  0.11286852  0.42339261  0.45568389    -0.77300
O106        O  0.21511585  0.31978182  0.04071013    -0.82400
C107        C  0.19758211  0.28888693  0.43957591     0.98600
C108        C  0.19900067  0.28525462  0.05639255     1.04500
O109        O  0.16590255  0.26901761  0.45577207    -0.78100
C110        C  0.15021658  0.43412304  0.44390213     1.02800
Fe111      Fe  0.39529475  0.09750173  0.24882807     1.65800
Fe112      Fe  0.36482360  0.20457644  0.24871754     1.73200
Fe113      Fe  0.28908669  0.12108807  0.24957600     1.54400
O114        O  0.29960018  0.07232989  0.20640562    -0.81800
O115        O  0.32223372  0.21825776  0.29509784    -0.80100
O116        O  0.37063220  0.06838729  0.19806671    -0.84300
O117        O  0.36388300  0.05409453  0.28558227    -0.79200
O118        O  0.27342789  0.16282229  0.20246052    -0.81000
O119        O  0.41239678  0.19704214  0.29270853    -0.83700
C120        C  0.32864300  0.05107757  0.30429652     0.97100
C121        C  0.33258432  0.05873760  0.18750745     1.04500
O122        O  0.34954824  0.14129096  0.24909719    -1.12700
O123        O  0.40925818  0.19916161  0.20185080    -0.75100
O124        O  0.43544560  0.13247386  0.21206423    -0.78600
O125        O  0.29765888  0.07689124  0.29708288    -0.79300
C126        C  0.43641865  0.16926410  0.19431719     0.96000
O127        O  0.42238629  0.12451295  0.29953897    -0.77300
O128        O  0.31946551  0.21910659  0.20504439    -0.82400
C129        C  0.28714914  0.20164921  0.30765061     0.98600
C130        C  0.28728090  0.19962647  0.18948800     1.04500
O131        O  0.27105660  0.16699567  0.29236655    -0.78100
C132        C  0.42848182  0.16397882  0.31090758     1.02800
Fe133      Fe  0.58854370  0.09908015  0.49991759     1.65800
Fe134      Fe  0.61859450  0.20744068  0.99899474     1.73200
Fe135      Fe  0.69545641  0.12510291  0.00029594     1.54400
O136        O  0.68740304  0.07831861  0.04602547    -0.81800
O137        O  0.66336110  0.22177603  0.45465090    -0.80100
O138        O  0.61937070  0.05886404  0.03940055    -0.84300
O139        O  0.61512208  0.06755005  0.45113008    -0.79200
O140        O  0.71145037  0.16957381  0.04485014    -0.81000
O141        O  0.57359524  0.20021871  0.45197806    -0.83700
C142        C  0.65311649  0.06077160  0.43866733     0.97100
C143        C  0.65563799  0.05419239  0.05557631     1.04500
O144        O  0.63456617  0.14418905  0.99981734    -1.12700
O145        O  0.57145517  0.20005228  0.04329004    -0.75100
O146        O  0.55977984  0.12771925  0.04931947    -0.78600
O147        O  0.68600334  0.07724967  0.45576056    -0.79300
C148        C  0.55425164  0.16713380  0.06083798     0.96000
O149        O  0.55011082  0.13197582  0.46057258    -0.77300
O150        O  0.66170282  0.22220547  0.04497075    -0.82400
C151        C  0.69718531  0.20402350  0.44086998     0.98600
C152        C  0.69584953  0.20499858  0.05887795     1.04500
O153        O  0.71197594  0.16820035  0.45504475    -0.78100
C154        C  0.54806107  0.16898010  0.44329882     1.02800
Fe155      Fe  0.89907972  0.39071687  0.25242774     1.65800
Fe156      Fe  0.79255367  0.36849699  0.24833235     1.73200
Fe157      Fe  0.86643272  0.28476520  0.24977519     1.54400
O158        O  0.90855110  0.29126757  0.20162436    -0.81800
O159        O  0.77228029  0.32148274  0.29041977    -0.80100
O160        O  0.94087380  0.35399198  0.21763037    -0.84300
O161        O  0.92172598  0.36347645  0.30466575    -0.79200
O162        O  0.81928493  0.26934567  0.20766126    -0.81000
O163        O  0.79976214  0.41139911  0.29655601    -0.83700
C164        C  0.92976146  0.32372386  0.31348884     0.97100
C165        C  0.93836451  0.31922256  0.19653764     1.04500
O166        O  0.85236520  0.34786243  0.25012849    -1.12700
O167        O  0.80685751  0.41785025  0.20559028    -0.75100
O168        O  0.87833159  0.42023704  0.20056978    -0.78600
O169        O  0.91596866  0.29146048  0.29247768    -0.79300
C170        C  0.84127907  0.43102647  0.18821769     0.96000
O171        O  0.86622849  0.43533463  0.28739437    -0.77300
O172        O  0.77749560  0.32803759  0.20048120    -0.82400
C173        C  0.78902969  0.28816504  0.30781768     0.98600
C174        C  0.78878038  0.28955969  0.19021303     1.04500
O175        O  0.82513403  0.27260516  0.29722038    -0.78100
C176        C  0.83011980  0.43766154  0.30485492     1.02800
C177        C  0.73191212  0.29002903  0.13648093    -0.21500
C178        C  0.76509883  0.26758718  0.15668864    -0.09500
C179        C  0.77480702  0.22427388  0.14457292     0.29400
C180        C  0.75199096  0.20436341  0.11306741    -0.21500
C181        C  0.71890718  0.22683624  0.09280090    -0.09500
C182        C  0.70902301  0.27004941  0.10500788     0.29400
F183        F  0.67774176  0.29344831  0.08625710    -0.20000
H184        H  0.72356341  0.32339815  0.14493186     0.17700
H185        H  0.76032890  0.17098720  0.10461099     0.17700
F186        F  0.80625266  0.20085955  0.16305887    -0.20000
C187        C  0.72478371  0.28156187  0.35355325    -0.21500
C188        C  0.76562004  0.26654541  0.34191326    -0.09500
C189        C  0.78364919  0.23084966  0.36335105     0.29400
C190        C  0.76123525  0.21092523  0.39523152    -0.21500
C191        C  0.72041657  0.22591437  0.40685988    -0.09500
C192        C  0.70239207  0.26164759  0.38552845     0.29400
F193        F  0.66287650  0.27722092  0.39507158    -0.20000
H194        H  0.70989590  0.30883448  0.33778981     0.17700
H195        H  0.77615811  0.18367666  0.41100526     0.17700
F196        F  0.82308675  0.21503057  0.35384159    -0.20000
C197        C  0.53469807  0.14738039  0.13084809    -0.21500
C198        C  0.52739376  0.17396639  0.09694199    -0.09500
C199        C  0.49283985  0.20364284  0.09721704     0.29400
C200        C  0.46420020  0.20420558  0.13012524    -0.21500
C201        C  0.47012191  0.17543821  0.16308283    -0.09500
C202        C  0.50687293  0.14841903  0.16379214     0.29400
F203        F  0.51539200  0.12180797  0.19587554    -0.20000
H204        H  0.56162368  0.12495749  0.13142572     0.17700
H205        H  0.43634105  0.22530372  0.12885318     0.17700
F206        F  0.48508479  0.22967072  0.06460898    -0.20000
C207        C  0.48694430  0.20391294  0.34851525    -0.21500
C208        C  0.45536697  0.17073487  0.34709659    -0.09500
C209        C  0.45171362  0.14109963  0.37951663     0.29400
C210        C  0.48063848  0.14283600  0.41145775    -0.21500
C211        C  0.51438514  0.17376783  0.41185431    -0.09500
C212        C  0.51652930  0.20539514  0.38064924     0.29400
F213        F  0.54838218  0.23596509  0.37993430    -0.20000
H214        H  0.49010066  0.22714420  0.32375522     0.17700
H215        H  0.47728244  0.11869513  0.43545921     0.17700
F216        F  0.42055162  0.10969470  0.37994336    -0.20000
C217        C  0.99242156  0.28750109  0.09735510    -0.21500
C218        C  0.03029637  0.31246883  0.09976551    -0.09500
C219        C  0.03979363  0.33511251  0.13568493     0.29400
C220        C  0.01063658  0.33509151  0.16771616    -0.21500
C221        C  0.97128809  0.31255709  0.16465777    -0.09500
C222        C  0.96294372  0.28751486  0.12955572     0.29400
F223        F  0.92517199  0.26567643  0.12511856    -0.20000
H224        H  0.98447567  0.27020603  0.06963669     0.17700
H225        H  0.01833667  0.35403490  0.19457153     0.17700
F226        F  0.07688679  0.35835490  0.13929334    -0.20000
C227        C  0.01938818  0.28519037  0.38280446    -0.21500
C228        C  0.01472847  0.31496977  0.41517549    -0.09500
C229        C  0.97859824  0.34282753  0.41575404     0.29400
C230        C  0.95012290  0.34344806  0.38334428    -0.21500
C231        C  0.95628445  0.31599696  0.34980699    -0.09500
C232        C  0.99023455  0.28556877  0.35028841     0.29400
F233        F  0.99700976  0.25859082  0.31819195    -0.20000
H234        H  0.04663747  0.26326905  0.38167393     0.17700
H235        H  0.92373796  0.36653083  0.38391721     0.17700
F236        F  0.97123150  0.37065970  0.44714697    -0.20000
C237        C  0.27560455  0.26438545  0.14381229    -0.21500
C238        C  0.26505771  0.22092281  0.15483273    -0.09500
C239        C  0.23327517  0.19852578  0.13241052     0.29400
C240        C  0.21224186  0.21956679  0.10043622    -0.21500
C241        C  0.22249679  0.26315600  0.08974568    -0.09500
C242        C  0.25469951  0.28533955  0.11173983     0.29400
F243        F  0.26537072  0.32770384  0.10309044    -0.20000
H244        H  0.29985141  0.28259598  0.16036983     0.17700
H245        H  0.18790110  0.20149692  0.08386182     0.17700
F246        F  0.22257125  0.15616123  0.14098744    -0.20000
C247        C  0.27847893  0.26469384  0.35589164    -0.21500
C248        C  0.26406632  0.22369176  0.34145800    -0.09500
C249        C  0.22767898  0.20434817  0.35978781     0.29400
C250        C  0.20634516  0.22582986  0.39132793    -0.21500
C251        C  0.22059459  0.26698109  0.40561000    -0.09500
C252        C  0.25720575  0.28612760  0.38750697     0.29400
F253        F  0.27285395  0.32547493  0.40031743    -0.20000
H254        H  0.30640122  0.28046574  0.34263432     0.17700
H255        H  0.17853519  0.20993750  0.40467253     0.17700
F256        F  0.21272171  0.16443701  0.34770069    -0.20000
C257        C  0.62598633  0.95862939  0.12342214    -0.21500
C258        C  0.65864995  0.95957166  0.15248723    -0.09500
C259        C  0.69316094  0.98916638  0.14747411     0.29400
C260        C  0.69328193  0.01907629  0.11497839    -0.21500
C261        C  0.65920136  0.01953615  0.08707195    -0.09500
C262        C  0.62618374  0.98783272  0.09108176     0.29400
F263        F  0.59326259  0.98530666  0.06422203    -0.20000
H264        H  0.59955814  0.93547288  0.12604260     0.17700
H265        H  0.71913518  0.04287791  0.11253962     0.17700
F266        F  0.72544359  0.99080754  0.17499996    -0.20000
C267        C  0.62740911  0.00165762  0.34160579    -0.21500
C268        C  0.66255409  0.97313202  0.33684540    -0.09500
C269        C  0.69729956  0.97686684  0.36397506     0.29400
C270        C  0.69517443  0.00666282  0.39652095    -0.21500
C271        C  0.65840858  0.03275438  0.40242505    -0.09500
C272        C  0.62519623  0.03082365  0.37380220     0.29400
F273        F  0.59007388  0.05697398  0.37700432    -0.20000
H274        H  0.60048647  0.00078277  0.32085816     0.17700
H275        H  0.72149239  0.00812295  0.41792673     0.18500
F276        F  0.73248775  0.95102095  0.35992751    -0.20000
C277        C  0.87475325  0.49565933  0.09526297    -0.21500
C278        C  0.83880911  0.52227606  0.08792968    -0.09500
C279        C  0.80215480  0.51672453  0.11254600     0.29400
C280        C  0.80240419  0.48609059  0.14447432    -0.21500
C281        C  0.83909443  0.46065263  0.15246306    -0.09500
C282        C  0.87503599  0.46529296  0.12682853     0.29400
F283        F  0.91081479  0.44050724  0.13209197    -0.20000
H284        H  0.90325065  0.49838673  0.07651335     0.17700
H285        H  0.77427228  0.48319224  0.16368787     0.17700
F286        F  0.76666111  0.54171108  0.10670296    -0.20000
C287        C  0.85432913  0.50713883  0.33714833    -0.21500
C288        C  0.82477552  0.47213588  0.33627024    -0.09500
C289        C  0.79340856  0.46940503  0.36707536     0.29400
C290        C  0.79363875  0.49983727  0.39918393    -0.21500
C291        C  0.82528780  0.53283045  0.40099692    -0.09500
C292        C  0.85481309  0.53683494  0.36912229     0.29400
F293        F  0.88505165  0.56903854  0.36942840    -0.20000
H294        H  0.87830246  0.51083989  0.31356593     0.17700
H295        H  0.77061859  0.49624320  0.42360822     0.17700
F296        F  0.76423893  0.43611617  0.36746347    -0.20000
C297        C  0.78632910  0.76010062  0.38635840    -0.21500
C298        C  0.76571304  0.72815677  0.41037150    -0.09500
C299        C  0.72277202  0.71702108  0.40138268     0.29400
C300        C  0.70165406  0.73672601  0.36865091    -0.21500
C301        C  0.72253311  0.76818371  0.34425390    -0.09500
C302        C  0.76519340  0.77994840  0.35381357     0.29400
F303        F  0.78702411  0.81014343  0.33143023    -0.20000
H304        H  0.81930890  0.76945398  0.39236456     0.17700
H305        H  0.66867366  0.72743624  0.36257571     0.17700
F306        F  0.70085729  0.68740388  0.42433472    -0.20000
C307        C  0.77577826  0.76890853  0.10196369    -0.21500
C308        C  0.76902998  0.72386178  0.09438173    -0.09500
C309        C  0.73913153  0.70081381  0.11860092     0.29400
C310        C  0.71715504  0.72236197  0.14972833    -0.21500
C311        C  0.72424148  0.76730192  0.15756183    -0.09500
C312        C  0.75364316  0.79049687  0.13295750     0.29400
F313        F  0.76064946  0.83425565  0.13825035    -0.20000
H314        H  0.79799749  0.78779550  0.08353514     0.17700
H315        H  0.69474902  0.70354890  0.16801960     0.17700
F316        F  0.73128839  0.65729824  0.11267415    -0.20000
C317        C  0.29512091  0.96877869  0.11597820    -0.21500
C318        C  0.32694028  0.97148199  0.08578917    -0.09500
C319        C  0.35710013  0.00619785  0.08747200     0.29400
C320        C  0.35740122  0.03504509  0.12006552    -0.21500
C321        C  0.32739535  0.03079952  0.15140498    -0.09500
C322        C  0.29511823  0.99843313  0.14853123     0.29400
F323        F  0.26530372  0.99377670  0.17823623    -0.20000
H324        H  0.27132959  0.94268680  0.11528871     0.17700
H325        H  0.38188434  0.06049633  0.12116792     0.17700
F326        F  0.38725740  0.01187584  0.05818775    -0.20000
C327        C  0.29558931  0.98555449  0.39807976    -0.21500
C328        C  0.33105366  0.95723444  0.40199812    -0.09500
C329        C  0.36222965  0.95680808  0.37128238     0.29400
C330        C  0.35948025  0.98587394  0.33889775    -0.21500
C331        C  0.32585448  0.01656210  0.33612308    -0.09500
C332        C  0.29295392  0.01517785  0.36541295     0.29400
F333        F  0.25932968  0.04339230  0.36349388    -0.20000
H334        H  0.27082990  0.98599749  0.42112273     0.17700
H335        H  0.38479993  0.98500388  0.31640822     0.17700
F336        F  0.39585745  0.92849343  0.37261154    -0.20000
C337        C  0.45398602  0.84492552  0.13146370    -0.21500
C338        C  0.46139705  0.81937620  0.09695416    -0.09500
C339        C  0.49635290  0.79009769  0.09660091     0.29400
C340        C  0.52481195  0.78860238  0.12964209    -0.21500
C341        C  0.51848970  0.81603274  0.16342549    -0.09500
C342        C  0.48168621  0.84305172  0.16445809     0.29400
F343        F  0.47286746  0.86881366  0.19699883    -0.20000
H344        H  0.42681641  0.86714307  0.13262336     0.17700
H345        H  0.55284310  0.76767107  0.12793472     0.17700
F346        F  0.50458512  0.76524720  0.06337962    -0.20000
C347        C  0.50836429  0.84519150  0.41341087    -0.21500
C348        C  0.47318933  0.81603716  0.41286544    -0.09500
C349        C  0.46940094  0.78594514  0.38057929     0.29400
C350        C  0.49902225  0.78716841  0.34848318    -0.21500
C351        C  0.53216061  0.81868315  0.34811111    -0.09500
C352        C  0.53724584  0.84680225  0.38141584     0.29400
F353        F  0.56969297  0.87677091  0.38259352    -0.20000
H354        H  0.51287272  0.86816747  0.43812686     0.17700
H355        H  0.49469052  0.76524137  0.32295343     0.17700
F356        F  0.43599188  0.75722498  0.37881299    -0.20000
C357        C  0.19840735  0.48318868  0.10743291    -0.21500
C358        C  0.16046445  0.46067209  0.09709849    -0.09500
C359        C  0.12352906  0.46711117  0.12087266     0.29400
C360        C  0.12399913  0.49635276  0.15303494    -0.21500
C361        C  0.16103313  0.52065647  0.16263889    -0.09500
C362        C  0.19871457  0.51332135  0.13984174     0.29400
F363        F  0.23543790  0.53562097  0.14826572    -0.20000
H364        H  0.22726834  0.47859061  0.08965538     0.17700
H365        H  0.09446474  0.50055337  0.16989584     0.17700
F366        F  0.08635019  0.44531064  0.11293345    -0.20000
C367        C  0.19005768  0.50756252  0.35733001    -0.21500
C368        C  0.15221242  0.53066240  0.34785914    -0.09500
C369        C  0.11549161  0.52349290  0.37193935     0.29400
C370        C  0.11603284  0.49273338  0.40301890    -0.21500
C371        C  0.15300812  0.46815621  0.41164408    -0.09500
C372        C  0.19060116  0.47658653  0.38906891     0.29400
F373        F  0.22735696  0.45424827  0.39678552    -0.20000
H374        H  0.21890843  0.51265750  0.33957727     0.17700
H375        H  0.08681259  0.48809608  0.42034927     0.17700
F376        F  0.07848547  0.54596273  0.36555939    -0.20000
C377        C  0.00012879  0.70507239  0.14910587    -0.21500
C378        C  0.03333268  0.67389597  0.15008828    -0.09500
C379        C  0.03820765  0.64496686  0.11725127     0.29400
C380        C  0.00903871  0.64541547  0.08532949    -0.21500
C381        C  0.97397278  0.67445786  0.08526553    -0.09500
C382        C  0.97046302  0.70534928  0.11699894     0.29400
F383        F  0.93722528  0.73407474  0.11825584    -0.20000
H384        H  0.99575764  0.72752448  0.17422500     0.17700
H385        H  0.01336785  0.62188244  0.06105020     0.17700
F386        F  0.07075559  0.61532010  0.11649809    -0.20000
C387        C  0.02680379  0.70768041  0.36964094    -0.21500
C388        C  0.01808222  0.68226146  0.33492475    -0.09500
C389        C  0.97833821  0.66030761  0.33209374     0.29400
C390        C  0.94970564  0.66088484  0.36442576    -0.21500
C391        C  0.95975218  0.68316992  0.40025577    -0.09500
C392        C  0.99780226  0.70806617  0.40230221     0.29400
F393        F  0.00839660  0.72976085  0.43680680    -0.20000
H394        H  0.05713678  0.72495629  0.37251738     0.17700
H395        H  0.92006204  0.64241361  0.36207424     0.17700
F396        F  0.96767866  0.63682835  0.29857929    -0.20000
C397        C  0.26531812  0.70764812  0.14620223    -0.21500
C398        C  0.22551656  0.72441553  0.15895300    -0.09500
C399        C  0.20887302  0.76175710  0.13905775     0.29400
C400        C  0.23139817  0.78130114  0.10722928    -0.21500
C401        C  0.27100883  0.76438815  0.09421834    -0.09500
C402        C  0.28790390  0.72728601  0.11427399     0.29400
F403        F  0.32610301  0.70967556  0.10311508    -0.20000
H404        H  0.27908555  0.67906027  0.16086448     0.17700
H405        H  0.21749073  0.80988286  0.09267129     0.17700
F406        F  0.17071090  0.77961401  0.15003290    -0.20000
C407        C  0.20754018  0.76172648  0.36102703    -0.21500
C408        C  0.22373204  0.72275630  0.34408141    -0.09500
C409        C  0.26180687  0.70483431  0.36020465     0.29400
C410        C  0.28311016  0.72583259  0.39205273    -0.21500
C411        C  0.26715268  0.76505473  0.40871475    -0.09500
C412        C  0.22875027  0.78263389  0.39296435     0.29400
F413        F  0.21127111  0.81988449  0.40844977    -0.20000
H414        H  0.17812945  0.77613718  0.34966693     0.17700
H415        H  0.31251239  0.71141539  0.40342164     0.17700
F416        F  0.27902821  0.66733076  0.34498653    -0.20000
Fe417      Fe  0.09108538  0.60172538  0.74873730     1.65800
Fe418      Fe  0.19769745  0.62288775  0.75086647     1.73200
Fe419      Fe  0.12418297  0.70753576  0.74908626     1.54400
O420        O  0.07504201  0.70040660  0.70580264    -0.81800
O421        O  0.21304339  0.66369572  0.79836472    -0.80100
O422        O  0.06711784  0.62803444  0.69663014    -0.84300
O423        O  0.05037760  0.63887986  0.78373145    -0.79200
O424        O  0.16597107  0.71874508  0.70195515    -0.81000
O425        O  0.18405703  0.57381018  0.79380094    -0.83700
C426        C  0.05199978  0.67474486  0.80315091     0.97100
C427        C  0.06015679  0.66753889  0.68620155     1.04500
O428        O  0.13794857  0.64426872  0.74955903    -1.12700
O429        O  0.18942429  0.57972110  0.70277294    -0.75100
O430        O  0.12296220  0.55685009  0.71371475    -0.78600
O431        O  0.08132396  0.70297720  0.79701545    -0.79300
C432        C  0.15831799  0.55411971  0.69504422     0.96000
O433        O  0.11285528  0.57303423  0.80048330    -0.77300
O434        O  0.21817969  0.66924531  0.70877275    -0.82400
C435        C  0.20152806  0.70199788  0.80899670     0.98600
C436        C  0.20188089  0.70272557  0.69146962     1.04500
O437        O  0.17108378  0.72249901  0.79161832    -0.78100
C438        C  0.14993927  0.56146433  0.81203252     1.02800
Fe439      Fe  0.39938540  0.89168181  0.50020582     1.65800
Fe440      Fe  0.29323600  0.86594981  0.00095089     1.73200
Fe441      Fe  0.36947575  0.78424601  0.99998074     1.54400
O442        O  0.41041790  0.79096127  0.95073848    -0.81800
O443        O  0.27682722  0.81839545  0.54208356    -0.80100
O444        O  0.43995215  0.85532836  0.96531474    -0.84300
O445        O  0.42543308  0.86554823  0.55193604    -0.79200
O446        O  0.32146472  0.76759560  0.95906233    -0.81000
O447        O  0.30199794  0.90868062  0.54858080    -0.83700
C448        C  0.43462543  0.82597519  0.56083518     0.97100
C449        C  0.43904476  0.82006054  0.94505138     1.04500
O450        O  0.35350229  0.84691328  0.00033354    -1.12700
O451        O  0.30357657  0.91586295  0.95849874    -0.75100
O452        O  0.37437237  0.91822282  0.94782086    -0.78600
O453        O  0.42076841  0.79315664  0.54060995    -0.79300
C454        C  0.33617860  0.92838137  0.93816340     0.96000
O455        O  0.36667559  0.93536563  0.53561799    -0.77300
O456        O  0.27788395  0.82526454  0.95346604    -0.82400
C457        C  0.29451893  0.78549860  0.55900783     0.98600
C458        C  0.29004731  0.78731551  0.94246767     1.04500
O459        O  0.33079689  0.77078103  0.54792648    -0.78100
C460        C  0.33167969  0.93640335  0.55488915     1.02800
Fe461      Fe  0.90088168  0.60122626  0.99327912     1.65800
Fe462      Fe  0.79416813  0.62419249  0.00085113     1.73200
Fe463      Fe  0.86860578  0.70834321  0.50046112     1.54400
O464        O  0.91313296  0.70017214  0.54678453    -0.81800
O465        O  0.77412838  0.67205872  0.96023089    -0.80100
O466        O  0.93946807  0.63363313  0.53399924    -0.84300
O467        O  0.92758846  0.63288743  0.94475485    -0.79200
O468        O  0.82287934  0.72184564  0.54428652    -0.81000
O469        O  0.79975711  0.58180871  0.95186509    -0.83700
C470        C  0.93385684  0.67294618  0.93601152     0.97100
C471        C  0.93998058  0.66960480  0.55354734     1.04500
O472        O  0.85410317  0.64474202  0.49822960    -1.12700
O473        O  0.80677283  0.57411934  0.54203532    -0.75100
O474        O  0.87753919  0.56428731  0.54015094    -0.78600
O475        O  0.91763414  0.70431513  0.95625965    -0.79300
C476        C  0.84076183  0.55551101  0.55464938     0.96000
O477        O  0.86870985  0.56327091  0.95189334    -0.77300
O478        O  0.77928893  0.66397578  0.54927218    -0.82400
C479        C  0.79033701  0.70618062  0.94373171     0.98600
C480        C  0.79158396  0.70176329  0.56078719     1.04500
O481        O  0.82656636  0.72194660  0.95419153    -0.78100
C482        C  0.83118355  0.56052353  0.93748961     1.02800
Fe483      Fe  0.59160006  0.89121182  0.75114508     1.65800
Fe484      Fe  0.69798608  0.86824111  0.75033619     1.73200
Fe485      Fe  0.62254634  0.78436524  0.75059095     1.54400
O486        O  0.57411708  0.79134835  0.79388899    -0.81800
O487        O  0.71359205  0.82625246  0.70350998    -0.80100
O488        O  0.56494478  0.86371753  0.80169709    -0.84300
O489        O  0.55171518  0.85628653  0.71420015    -0.79200
O490        O  0.66458490  0.77171394  0.79793092    -0.81000
O491        O  0.68679830  0.91659266  0.70682039    -0.83700
C492        C  0.55143731  0.82000779  0.69561011     0.97100
C493        C  0.55842047  0.82420316  0.81256515     1.04500
O494        O  0.63759680  0.84774225  0.75069126    -1.12700
O495        O  0.69010387  0.91300516  0.79749812    -0.75100
O496        O  0.62299135  0.93401865  0.78814333    -0.78600
O497        O  0.57883025  0.79012650  0.70288944    -0.79300
C498        C  0.65874399  0.93795289  0.80573434     0.96000
O499        O  0.61561202  0.92143500  0.70067560    -0.77300
O500        O  0.71613619  0.82263827  0.79343106    -0.82400
C501        C  0.70050811  0.78881327  0.69158605     0.98600
C502        C  0.69985144  0.78859062  0.80982150     1.04500
O503        O  0.66869378  0.76918227  0.70770938    -0.78100
C504        C  0.65338026  0.93090387  0.68908654     1.02800
Fe505      Fe  0.08941237  0.39048325  0.00424827     1.65800
Fe506      Fe  0.19593137  0.36723992  0.99967239     1.73200
Fe507      Fe  0.12014821  0.28264962  0.49955594     1.54400
O508        O  0.07230355  0.28787866  0.54388995    -0.81800
O509        O  0.21054265  0.32686191  0.95122248    -0.80100
O510        O  0.06275318  0.35980668  0.55378270    -0.84300
O511        O  0.04983948  0.35759563  0.96508849    -0.79200
O512        O  0.16279322  0.26811254  0.54546192    -0.81000
O513        O  0.18403191  0.41791956  0.95828450    -0.83700
C514        C  0.04836151  0.32122318  0.94651508     0.97100
C515        C  0.05654231  0.32000253  0.56358840     1.04500
O516        O  0.13532814  0.34601682  0.50119120    -1.12700
O517        O  0.18873540  0.40795590  0.54981432    -0.75100
O518        O  0.12117545  0.42957879  0.54380463    -0.78600
O519        O  0.07513769  0.29067653  0.95334970    -0.79300
C520        C  0.15716423  0.43104629  0.56132455     0.96000
O521        O  0.11292402  0.42491435  0.95596340    -0.77300
O522        O  0.21492078  0.31839707  0.54091659    -0.82400
C523        C  0.19741691  0.28943810  0.93916869     0.98600
C524        C  0.19858476  0.28405948  0.55677952     1.04500
O525        O  0.16549132  0.26987841  0.95521519    -0.78100
C526        C  0.15021317  0.43516009  0.94365070     1.02800
Fe527      Fe  0.39551083  0.09670462  0.74918633     1.65800
Fe528      Fe  0.36467259  0.20368628  0.74899595     1.73200
Fe529      Fe  0.28917059  0.12015745  0.75005643     1.54400
O530        O  0.29975267  0.07111256  0.70718458    -0.81800
O531        O  0.32240088  0.21726688  0.79563366    -0.80100
O532        O  0.37077537  0.06742881  0.69854327    -0.84300
O533        O  0.36415199  0.05314231  0.78614757    -0.79200
O534        O  0.27334036  0.16149773  0.70273916    -0.81000
O535        O  0.41265263  0.19636895  0.79272067    -0.83700
C536        C  0.32880576  0.05035334  0.80478641     0.97100
C537        C  0.33270968  0.05757949  0.68821577     1.04500
O538        O  0.34960456  0.14039482  0.74948974    -1.12700
O539        O  0.40859815  0.19824015  0.70176027    -0.75100
O540        O  0.43552206  0.13184139  0.71211657    -0.78600
O541        O  0.29798875  0.07637127  0.79763427    -0.79300
C542        C  0.43593343  0.16854903  0.69412673     0.96000
O543        O  0.42271803  0.12389081  0.79978218    -0.77300
O544        O  0.31893312  0.21811592  0.70560234    -0.82400
C545        C  0.28717804  0.20085607  0.80805084     0.98600
C546        C  0.28692961  0.19844611  0.68990422     1.04500
O547        O  0.27096017  0.16629543  0.79267737    -0.78100
C548        C  0.42884332  0.16340452  0.81100885     1.02800
Fe549      Fe  0.58911155  0.09955875  0.00019566     1.65800
Fe550      Fe  0.61834025  0.20689720  0.49861854     1.73200
Fe551      Fe  0.69497751  0.12446461  0.50058177     1.54400
O552        O  0.68642948  0.07811737  0.54661465    -0.81800
O553        O  0.66329542  0.22267742  0.95501915    -0.80100
O554        O  0.61856981  0.05833378  0.53927619    -0.84300
O555        O  0.61551161  0.06803129  0.95138388    -0.79200
O556        O  0.71092501  0.16917399  0.54496496    -0.81000
O557        O  0.57361273  0.20083147  0.95248548    -0.83700
C558        C  0.65336666  0.06142727  0.93849499     0.97100
C559        C  0.65462536  0.05393037  0.55593840     1.04500
O560        O  0.63411943  0.14363761  0.49970376    -1.12700
O561        O  0.57085296  0.19968450  0.54274314    -0.75100
O562        O  0.55900977  0.12736216  0.54893160    -0.78600
O563        O  0.68637085  0.07817223  0.95518280    -0.79300
C564        C  0.55344562  0.16683783  0.56028111     0.96000
O565        O  0.55055384  0.13242096  0.96093288    -0.77300
O566        O  0.66120652  0.22180265  0.54480610    -0.82400
C567        C  0.69715788  0.20512765  0.94118170     0.98600
C568        C  0.69527627  0.20461375  0.55890302     1.04500
O569        O  0.71204881  0.16924458  0.95509360    -0.78100
C570        C  0.54827345  0.16944599  0.94371509     1.02800
Fe571      Fe  0.89876150  0.39082154  0.75225922     1.65800
Fe572      Fe  0.79201576  0.36882153  0.74817339     1.73200
Fe573      Fe  0.86583201  0.28479864  0.74991070     1.54400
O574        O  0.90855733  0.29080589  0.70213979    -0.81800
O575        O  0.77188857  0.32268519  0.79094924    -0.80100
O576        O  0.94008496  0.35432603  0.71691930    -0.84300
O577        O  0.92190037  0.36340255  0.80418583    -0.79200
O578        O  0.81905694  0.26944666  0.70738748    -0.81000
O579        O  0.79930959  0.41252555  0.79580064    -0.83700
C580        C  0.92920374  0.32369372  0.81367511     0.97100
C581        C  0.93796889  0.31908672  0.69648354     1.04500
O582        O  0.85189831  0.34802463  0.75003316    -1.12700
O583        O  0.80625021  0.41734969  0.70475757    -0.75100
O584        O  0.87774866  0.42081579  0.70073658    -0.78600
O585        O  0.91486736  0.29130269  0.79316511    -0.79300
C586        C  0.84074037  0.43097046  0.68784115     0.96000
O587        O  0.86638364  0.43508780  0.78781410    -0.77300
O588        O  0.77644783  0.32761176  0.70095575    -0.82400
C589        C  0.78840133  0.28910473  0.80805479     0.98600
C590        C  0.78807742  0.28933936  0.69037571     1.04500
O591        O  0.82407613  0.27295478  0.79697758    -0.78100
C592        C  0.83005688  0.43804359  0.80473399     1.02800
C593        C  0.73118003  0.28971020  0.63660015    -0.21500
C594        C  0.76427182  0.26725380  0.65694845    -0.09500
C595        C  0.77380697  0.22383340  0.64502520     0.29400
C596        C  0.75105570  0.20390792  0.61346819    -0.21500
C597        C  0.71817763  0.22645153  0.59295885    -0.09500
C598        C  0.70834687  0.26970981  0.60507732     0.29400
F599        F  0.67720995  0.29314862  0.58615637    -0.20000
H600        H  0.72292183  0.32313991  0.64492779     0.17700
H601        H  0.75929658  0.17046535  0.60514812     0.17700
F602        F  0.80500705  0.20031731  0.66377017    -0.20000
C603        C  0.72495964  0.28363427  0.85479985    -0.21500
C604        C  0.76523861  0.26781793  0.84237727    -0.09500
C605        C  0.78298442  0.23158967  0.86322828     0.29400
C606        C  0.76070389  0.21170887  0.89513840    -0.21500
C607        C  0.72032730  0.22728804  0.90738852    -0.09500
C608        C  0.70270439  0.26377454  0.88685716     0.29400
F609        F  0.66374057  0.28014697  0.89726052    -0.20000
H610        H  0.71039688  0.31144553  0.83956979     0.17700
H611        H  0.77535253  0.18394548  0.91037302     0.17700
F612        F  0.82198222  0.21512863  0.85306153    -0.20000
C613        C  0.53498726  0.14894433  0.63100563    -0.21500
C614        C  0.52640509  0.17381342  0.59626596    -0.09500
C615        C  0.49037835  0.20158376  0.59561077     0.29400
C616        C  0.46183980  0.20206529  0.62861695    -0.21500
C617        C  0.46922353  0.17501648  0.66253722    -0.09500
C618        C  0.50714644  0.14984711  0.66398489     0.29400
F619        F  0.51684340  0.12494632  0.69690996    -0.20000
H620        H  0.56293451  0.12790801  0.63220790     0.17700
H621        H  0.43297023  0.22162922  0.62672622     0.17700
F622        F  0.48120105  0.22568248  0.56208983    -0.20000
C623        C  0.48690863  0.20396157  0.84883270    -0.21500
C624        C  0.45579397  0.17031361  0.84719481    -0.09500
C625        C  0.45252370  0.14048805  0.87951149     0.29400
C626        C  0.48130241  0.14255797  0.91155118    -0.21500
C627        C  0.51460435  0.17398646  0.91218408    -0.09500
C628        C  0.51639071  0.20576135  0.88107424     0.29400
F629        F  0.54778112  0.23683773  0.88057994    -0.20000
H630        H  0.48977500  0.22737319  0.82418776     0.17700
H631        H  0.47819396  0.11826383  0.93544992     0.17700
F632        F  0.42184819  0.10858497  0.87978348    -0.20000
C633        C  0.99222503  0.28676296  0.59754089    -0.21500
C634        C  0.02994331  0.31202797  0.59975783    -0.09500
C635        C  0.03921232  0.33515768  0.63547778     0.29400
C636        C  0.01007647  0.33517442  0.66751108    -0.21500
C637        C  0.97090924  0.31229144  0.66465051    -0.09500
C638        C  0.96271603  0.28689581  0.62973690     0.29400
F639        F  0.92503399  0.26485448  0.62545568    -0.20000
H640        H  0.98440057  0.26915482  0.56996007     0.17700
H641        H  0.01762365  0.35446204  0.69419807     0.17700
F642        F  0.07602351  0.35892462  0.63885235    -0.20000
C643        C  0.01771394  0.28464135  0.88411965    -0.21500
C644        C  0.01427577  0.31594331  0.91540326    -0.09500
C645        C  0.97907724  0.34505203  0.91510949     0.29400
C646        C  0.95046313  0.34528864  0.88281943    -0.21500
C647        C  0.95553478  0.31629681  0.85021828    -0.09500
C648        C  0.98839922  0.28467221  0.85171435     0.29400
F649        F  0.99401431  0.25603768  0.82065536    -0.20000
H650        H  0.04414792  0.26166794  0.88371576     0.17700
H651        H  0.92487823  0.36930942  0.88269364     0.17700
F652        F  0.97277578  0.37448876  0.94545778    -0.20000
C653        C  0.27531566  0.26306138  0.64406331    -0.21500
C654        C  0.26463815  0.21968500  0.65524231    -0.09500
C655        C  0.23270881  0.19733567  0.63294610     0.29400
C656        C  0.21165031  0.21837557  0.60096342    -0.21500
C657        C  0.22205666  0.26189317  0.59012703    -0.09500
C658        C  0.25442565  0.28398497  0.61197287     0.29400
F659        F  0.26529097  0.32625316  0.60315313    -0.20000
H660        H  0.29968911  0.28123165  0.66049152     0.17700
H661        H  0.18718489  0.20036858  0.58449440     0.17700
F662        F  0.22187522  0.15503612  0.64166284    -0.20000
C663        C  0.27790193  0.26472810  0.85523436    -0.21500
C664        C  0.26405643  0.22315619  0.84170336    -0.09500
C665        C  0.22813984  0.20362578  0.86066723     0.29400
C666        C  0.20670812  0.22548500  0.89194954    -0.21500
C667        C  0.22039993  0.26721350  0.90533215    -0.09500
C668        C  0.25652746  0.28654844  0.88656555     0.29400
F669        F  0.27154489  0.32651373  0.89838336    -0.20000
H670        H  0.30541605  0.28069307  0.84142251     0.17700
H671        H  0.17931065  0.20940240  0.90585011     0.17700
F672        F  0.21380571  0.16316008  0.84949506    -0.20000
C673        C  0.62450550  0.95905658  0.62454911    -0.21500
C674        C  0.65758114  0.95959931  0.65320101    -0.09500
C675        C  0.69223550  0.98894170  0.64788010     0.29400
C676        C  0.69226144  0.01881747  0.61535908    -0.21500
C677        C  0.65792092  0.01953741  0.58773292    -0.09500
C678        C  0.62456531  0.98826556  0.59220970     0.29400
F679        F  0.59121690  0.98610679  0.56579861    -0.20000
H680        H  0.59789562  0.93615991  0.62746586     0.17700
H681        H  0.71833484  0.04232910  0.61262499     0.17700
F682        F  0.72480676  0.99033320  0.67511307    -0.20000
C683        C  0.62591597  0.00012858  0.84299674    -0.21500
C684        C  0.66166461  0.97260857  0.83738118    -0.09500
C685        C  0.69725406  0.97774247  0.86333191     0.29400
C686        C  0.69547775  0.00795660  0.89559035    -0.21500
C687        C  0.65825102  0.03312156  0.90235220    -0.09500
C688        C  0.62408148  0.02974723  0.87484247     0.29400
F689        F  0.58834908  0.05488826  0.87879993    -0.20000
H690        H  0.59828288  0.99818941  0.82315938     0.17700
H691        H  0.72250277  0.01048166  0.91611094     0.18500
F692        F  0.73301203  0.95291906  0.85839362    -0.20000
C693        C  0.87478886  0.49625207  0.59547785    -0.21500
C694        C  0.83839717  0.52198164  0.58741255    -0.09500
C695        C  0.80130304  0.51544198  0.61123819     0.29400
C696        C  0.80156059  0.48485659  0.64318462    -0.21500
C697        C  0.83867346  0.46041214  0.65197372    -0.09500
C698        C  0.87506454  0.46590021  0.62705271     0.29400
F699        F  0.91128631  0.44199691  0.63304738    -0.20000
H700        H  0.90366033  0.49970071  0.57734757     0.17700
H701        H  0.77304752  0.48122252  0.66178689     0.17700
F702        F  0.76527042  0.53934439  0.60455947    -0.20000
C703        C  0.85533985  0.50654799  0.83794607    -0.21500
C704        C  0.82493970  0.47235700  0.83631867    -0.09500
C705        C  0.79296377  0.47016906  0.86659999     0.29400
C706        C  0.79323892  0.50044229  0.89883898    -0.21500
C707        C  0.82560930  0.53263106  0.90135750    -0.09500
C708        C  0.85593183  0.53598647  0.87009193     0.29400
F709        F  0.88704886  0.56728419  0.87117016    -0.20000
H710        H  0.87988210  0.50978243  0.81483279     0.17700
H711        H  0.76964201  0.49731842  0.92282221     0.17700
F712        F  0.76311138  0.43752326  0.86637127    -0.20000
C713        C  0.78721497  0.75930560  0.88572654    -0.21500
C714        C  0.76638325  0.72810636  0.91040497    -0.09500
C715        C  0.72311989  0.71767095  0.90213238     0.29400
C716        C  0.70187024  0.73730364  0.86945410    -0.21500
C717        C  0.72293014  0.76801999  0.84442160    -0.09500
C718        C  0.76593417  0.77909840  0.85322759     0.29400
F719        F  0.78794924  0.80846504  0.83008355    -0.20000
H720        H  0.82045703  0.76807524  0.89116329     0.17700
H721        H  0.66862890  0.72859112  0.86394301     0.17700
F722        F  0.70101436  0.68883874  0.92575483    -0.20000
C723        C  0.77434551  0.76889232  0.60162004    -0.21500
C724        C  0.76813891  0.72369787  0.59437639    -0.09500
C725        C  0.73874650  0.70040091  0.61891974     0.29400
C726        C  0.71680329  0.72184167  0.65012543    -0.21500
C727        C  0.72342893  0.76691160  0.65767684    -0.09500
C728        C  0.75222176  0.79037557  0.63267058     0.29400
F729        F  0.75859028  0.83428551  0.63761272    -0.20000
H730        H  0.79611554  0.78796294  0.58287589     0.17700
H731        H  0.69483871  0.70284735  0.66873260     0.17700
F732        F  0.73145922  0.65674047  0.61328222    -0.20000
C733        C  0.29635459  0.96652946  0.61746590    -0.21500
C734        C  0.32699356  0.97071638  0.58635320    -0.09500
C735        C  0.35588574  0.00655282  0.58731176     0.29400
C736        C  0.35621094  0.03522207  0.62003589    -0.21500
C737        C  0.32743000  0.02961527  0.65220020    -0.09500
C738        C  0.29636448  0.99596139  0.65018156     0.29400
F739        F  0.26791772  0.98986860  0.68085209    -0.20000
H740        H  0.27363570  0.93943829  0.61737117     0.17700
H741        H  0.37973319  0.06163222  0.62057921     0.17700
F742        F  0.38473002  0.01353270  0.55709661    -0.20000
C743        C  0.29666975  0.98720212  0.89990911    -0.21500
C744        C  0.32997275  0.95610222  0.90187639    -0.09500
C745        C  0.35895281  0.95299913  0.86944639     0.29400
C746        C  0.35652028  0.98234618  0.83718785    -0.21500
C747        C  0.32535190  0.01575275  0.83637734    -0.09500
C748        C  0.29432735  0.01699006  0.86742045     0.29400
F749        F  0.26320401  0.04814666  0.86753323    -0.20000
H750        H  0.27366238  0.98976120  0.92440234     0.17700
H751        H  0.38014721  0.97958187  0.81323651     0.17700
F752        F  0.39011965  0.92183335  0.86908347    -0.20000
C753        C  0.45381926  0.84343677  0.63157389    -0.21500
C754        C  0.46188081  0.81859631  0.59675340    -0.09500
C755        C  0.49706930  0.78961572  0.59632732     0.29400
C756        C  0.52520942  0.78786236  0.62959890    -0.21500
C757        C  0.51828887  0.81471465  0.66366199    -0.09500
C758        C  0.48118437  0.84125094  0.66480058     0.29400
F759        F  0.47181604  0.86627336  0.69769243    -0.20000
H760        H  0.42641831  0.86534868  0.63279497     0.17700
H761        H  0.55350120  0.76730712  0.62784610     0.17700
F762        F  0.50584465  0.76537827  0.56284746    -0.20000
C763        C  0.50679610  0.84529269  0.91319366    -0.21500
C764        C  0.47260548  0.81492057  0.91355765    -0.09500
C765        C  0.46995854  0.78348090  0.88225652     0.29400
C766        C  0.49959929  0.78460877  0.85013017    -0.21500
C767        C  0.53161184  0.81732440  0.84877512    -0.09500
C768        C  0.53564072  0.84678444  0.88120922     0.29400
F769        F  0.56698888  0.87798792  0.88152112    -0.20000
H770        H  0.51054027  0.86935178  0.93713555     0.17700
H771        H  0.49612749  0.76156842  0.82532626     0.17700
F772        F  0.43771600  0.75333449  0.88151352    -0.20000
C773        C  0.19872905  0.48125117  0.60840030    -0.21500
C774        C  0.16030576  0.46007793  0.59721005    -0.09500
C775        C  0.12300798  0.46801075  0.62006860     0.29400
C776        C  0.12364070  0.49746108  0.65207348    -0.21500
C777        C  0.16124016  0.52041932  0.66251872    -0.09500
C778        C  0.19923761  0.51153317  0.64070693     0.29400
F779        F  0.23652809  0.53232086  0.65010824    -0.20000
H780        H  0.22790436  0.47542099  0.59141221     0.17700
H781        H  0.09381641  0.50287430  0.66816159     0.17700
F782        F  0.08535372  0.44739569  0.61146360    -0.20000
C783        C  0.19018879  0.50856942  0.85717462    -0.21500
C784        C  0.15241398  0.53175215  0.84769957    -0.09500
C785        C  0.11567259  0.52474240  0.87179391     0.29400
C786        C  0.11610570  0.49393910  0.90284818    -0.21500
C787        C  0.15300576  0.46921601  0.91142156    -0.09500
C788        C  0.19063434  0.47758269  0.88887505     0.29400
F789        F  0.22735334  0.45518158  0.89658509    -0.20000
H790        H  0.21905605  0.51357217  0.83942279     0.17700
H791        H  0.08687294  0.48936722  0.92017291     0.17700
F792        F  0.07875662  0.54737323  0.86541559    -0.20000
C793        C  0.99991530  0.70516224  0.64918497    -0.21500
C794        C  0.03331445  0.67417590  0.64980662    -0.09500
C795        C  0.03804409  0.64540228  0.61684131     0.29400
C796        C  0.00858538  0.64578896  0.58516449    -0.21500
C797        C  0.97337863  0.67464383  0.58543433    -0.09500
C798        C  0.96997220  0.70540424  0.61728943     0.29400
F799        F  0.93660940  0.73396101  0.61885891    -0.20000
H800        H  0.99563845  0.72749143  0.67441102     0.17700
H801        H  0.01284829  0.62238491  0.56076937     0.17700
F802        F  0.07075778  0.61596533  0.61571314    -0.20000
C803        C  0.02731923  0.70732882  0.86938239    -0.21500
C804        C  0.01871060  0.68211082  0.83452119    -0.09500
C805        C  0.97917776  0.65968653  0.83176451     0.29400
C806        C  0.95064101  0.65976771  0.86419148    -0.21500
C807        C  0.96051130  0.68205570  0.90006408    -0.09500
C808        C  0.99839015  0.70724547  0.90212409     0.29400
F809        F  0.00889353  0.72883537  0.93670620    -0.20000
H810        H  0.05750845  0.72486514  0.87227751     0.17700
H811        H  0.92115672  0.64103101  0.86180816     0.17700
F812        F  0.96861694  0.63622985  0.79820535    -0.20000
C813        C  0.26621908  0.70810254  0.64595654    -0.21500
C814        C  0.22567737  0.72395494  0.65763518    -0.09500
C815        C  0.20828981  0.76009984  0.63650534     0.29400
C816        C  0.23096782  0.77961727  0.60476891    -0.21500
C817        C  0.27145475  0.76382289  0.59301396    -0.09500
C818        C  0.28894027  0.72767975  0.61406868     0.29400
F819        F  0.32793160  0.71109357  0.60406123    -0.20000
H820        H  0.28053925  0.68038490  0.66153380     0.17700
H821        H  0.21648066  0.80731240  0.58929325     0.17700
F822        F  0.16923232  0.77678082  0.64615636    -0.20000
C823        C  0.20860072  0.76306414  0.85948222    -0.21500
C824        C  0.22435207  0.72355858  0.84320118    -0.09500
C825        C  0.26171059  0.70504557  0.86022516     0.29400
C826        C  0.28253804  0.72576426  0.89251307    -0.21500
C827        C  0.26687512  0.76535648  0.90869309    -0.09500
C828        C  0.22938857  0.78375252  0.89179803     0.29400
F829        F  0.21241612  0.82163180  0.90647786    -0.20000
H830        H  0.17982534  0.77805240  0.84733692     0.17700
H831        H  0.31132804  0.71079203  0.90464207     0.17700
F832        F  0.27863258  0.66714214  0.84555918    -0.20000
loop_ 
_geom_bond_atom_site_label_1 
_geom_bond_atom_site_label_2 
_geom_bond_distance 
_geom_bond_site_symmetry_2 
_ccdc_geom_bond_type 
Fe1          O17   2.035       .  S
Fe1           O7   2.058       .  S
Fe1          O14   2.049       .  S
Fe1           O6   2.039       .  S
Fe1          O12   1.948       .  S
Fe2           O5   2.054       .  S
Fe2           O9   2.098       .  S
Fe2          O13   2.073       .  S
Fe2          O18   2.076       .  S
Fe2          O12   1.975       .  S
Fe3          O21   2.077       .  S
Fe3           O8   2.052       .  S
Fe3          O15   2.070       .  S
Fe3           O4   2.105       .  S
Fe3          O12   1.971       .  S
O4           C11   1.276       .  A
O5           C19   1.268       .  A
O6           C11   1.267       .  A
O7           C10   1.266       .  A
O8           C20   1.268       .  A
O9           C22   1.276       .  A
C10          O15   1.266       .  A
C10         C388   1.482       .  S
C11         C378   1.478       .  S
O13          C16   1.266       .  A
O14          C16   1.265       .  A
C16         C361   1.487       .  S
O17          C22   1.268       .  A
O18          C20   1.273       .  A
C19          O21   1.273       .  A
C19         C408   1.486       .  S
C20         C398   1.485       .  S
C22         C368   1.486       .  S
Fe23         O39   2.045   1_556  S
Fe23         O29   2.051   1_556  S
Fe23        O452   2.051       .  S
Fe23        O444   2.043       .  S
Fe23        O450   1.944   1_556  S
Fe24         O35   2.088       .  S
Fe24         O40   2.052       .  S
Fe24        O443   2.063       .  S
Fe24        O447   2.069       .  S
Fe24         O34   1.968       .  S
Fe25         O30   2.077       .  S
Fe25         O26   2.074       .  S
Fe25        O459   2.064       .  S
Fe25        O453   2.097       .  S
Fe25         O34   1.970       .  S
O26          C33   1.267       .  A
O27        Fe440   2.064       .  S
O27          C41   1.271       .  A
O28        Fe439   2.045       .  S
O28          C33   1.264       .  A
O29          C32   1.271       .  A
O30          C42   1.273       .  A
O31        Fe440   2.069       .  S
O31          C44   1.266       .  A
C32          O37   1.276       .  A
C32         C338   1.477       .  S
C33         C348   1.482       .  S
O34        Fe439   1.946       .  S
O35          C38   1.274       .  A
O36        Fe439   2.050       .  S
O36          C38   1.271       .  A
O37        Fe441   2.099   1_554  S
C38         C328   1.479       .  S
O39          C44   1.263       .  A
O40          C42   1.267       .  A
C41          O43   1.270       .  A
C41         C401   1.485       .  S
C42         C411   1.486       .  S
O43        Fe441   2.063   1_554  S
C44         C318   1.482       .  S
Fe45         O61   2.050       .  S
Fe45         O51   2.041       .  S
Fe45        O474   2.049       .  S
Fe45        O466   2.060       .  S
Fe45        O472   1.961       .  S
Fe46         O49   2.074       .  S
Fe46         O53   2.077       .  S
Fe46        O473   2.083       .  S
Fe46        O478   2.059       .  S
Fe46        O472   1.984       .  S
Fe47         O52   2.075       .  S
Fe47         O48   2.079       .  S
Fe47        O481   2.067   1_554  S
Fe47        O475   2.093   1_554  S
Fe47         O56   1.982   1_554  S
O48          C55   1.271       .  A
O49          C63   1.273       .  A
O50        Fe461   2.060   1_554  S
O50          C55   1.269       .  A
O51          C54   1.264       .  A
O52          C64   1.271       .  A
O53          C66   1.267       .  A
C54          O59   1.270       .  A
C54         C391   1.472       .  S
C55         C381   1.488       .  S
O56        Fe461   1.960       .  S
O56        Fe462   1.983   1_556  S
O57        Fe462   2.084       .  S
O57          C60   1.272       .  A
O58        Fe461   2.048   1_554  S
O58          C60   1.269       .  A
O59        Fe463   2.091       .  S
C60         C278   1.486       .  S
O61          C66   1.265       .  A
O62        Fe462   2.058       .  S
O62          C64   1.267       .  A
C63          O65   1.273       .  A
C63         C298   1.488       .  S
C64         C308   1.488       .  S
O65        Fe463   2.068       .  S
C66         C291   1.475       .  S
Fe67         O83   2.041       .  S
Fe67         O73   2.040       .  S
Fe67         O80   2.035       .  S
Fe67         O72   2.041       .  S
Fe67         O78   1.949       .  S
Fe68         O71   2.064       .  S
Fe68         O75   2.085       .  S
Fe68         O79   2.082       .  S
Fe68         O84   2.065       .  S
Fe68         O78   1.975       .  S
Fe69         O87   2.073       .  S
Fe69         O74   2.077       .  S
Fe69         O81   2.090       .  S
Fe69         O70   2.090       .  S
Fe69         O78   1.976       .  S
O70          C77   1.273       .  A
O71          C85   1.270       .  A
O72          C77   1.268       .  A
O73          C76   1.262       .  A
O74          C86   1.274       .  A
O75          C88   1.273       .  A
C76          O81   1.271       .  A
C76         C341   1.487       .  S
C77         C351   1.471       .  S
O79          C82   1.268       .  A
O80          C82   1.262       .  A
C82         C268   1.486       .  S
O83          C88   1.270       .  A
O84          C86   1.271       .  A
C85          O87   1.272       .  A
C85         C311   1.487       .  S
C86         C301   1.489       .  S
C88         C258   1.475       .  S
Fe89        O105   2.038       .  S
Fe89         O95   2.048       .  S
Fe89        O518   2.039       .  S
Fe89        O510   2.041       .  S
Fe89        O516   1.954       .  S
Fe90         O93   2.065       .  S
Fe90         O97   2.094       .  S
Fe90        O517   2.082       .  S
Fe90        O522   2.068       .  S
Fe90        O516   1.981       .  S
Fe91         O96   2.065   1_556  S
Fe91         O92   2.092   1_556  S
Fe91        O525   2.071       .  S
Fe91        O519   2.083       .  S
Fe91        O100   1.983   1_556  S
O92          C99   1.272       .  A
O93         C107   1.271       .  A
O94        Fe505   2.043       .  S
O94          C99   1.265       .  A
O95          C98   1.265       .  A
O96         C108   1.271       .  A
O97         C110   1.274       .  A
C98         O103   1.269       .  A
C98         C228   1.486       .  S
C99         C218   1.472       .  S
O100       Fe505   1.956       .  S
O100       Fe506   1.983   1_554  S
O101       Fe506   2.084   1_554  S
O101        C104   1.269       .  A
O102       Fe505   2.035       .  S
O102        C104   1.262       .  A
O103       Fe507   2.081       .  S
C104        C358   1.480       .  S
O105        C110   1.268       .  A
O106       Fe506   2.067   1_554  S
O106        C108   1.270       .  A
C107        O109   1.272       .  A
C107        C251   1.489       .  S
C108        C241   1.484       .  S
O109       Fe507   2.073       .  S
C110        C371   1.485       .  S
Fe111       O127   2.047       .  S
Fe111       O117   2.038       .  S
Fe111       O124   2.037       .  S
Fe111       O116   2.045       .  S
Fe111       O122   1.953       .  S
Fe112       O115   2.069       .  S
Fe112       O119   2.089       .  S
Fe112       O123   2.082       .  S
Fe112       O128   2.068       .  S
Fe112       O122   1.978       .  S
Fe113       O131   2.065       .  S
Fe113       O118   2.065       .  S
Fe113       O125   2.081       .  S
Fe113       O114   2.083       .  S
Fe113       O122   1.979       .  S
O114        C121   1.272       .  A
O115        C129   1.271       .  A
O116        C121   1.269       .  A
O117        C120   1.262       .  A
O118        C130   1.270       .  A
O119        C132   1.274       .  A
C120        O125   1.268       .  A
C120        C331   1.485       .  S
C121        C321   1.473       .  S
O123        C126   1.268       .  A
O124        C126   1.261       .  A
C126        C201   1.482       .  S
O127        C132   1.270       .  A
O128        C130   1.272       .  A
C129        O131   1.270       .  A
C129        C248   1.488       .  S
C130        C238   1.486       .  S
C132        C208   1.474       .  S
Fe133       O149   2.031       .  S
Fe133       O139   2.050       .  S
Fe133       O562   2.052       .  S
Fe133       O554   2.025       .  S
Fe133       O560   1.958       .  S
Fe134       O145   2.083   1_556  S
Fe134       O150   2.076   1_556  S
Fe134       O553   2.062       .  S
Fe134       O557   2.089       .  S
Fe134       O144   1.986       .  S
Fe135       O140   2.059       .  S
Fe135       O136   2.086       .  S
Fe135       O569   2.069   1_554  S
Fe135       O563   2.082   1_554  S
Fe135       O144   1.986   1_554  S
O136        C143   1.269       .  A
O137       Fe550   2.066       .  S
O137        C151   1.270       .  A
O138       Fe549   2.024       .  S
O138        C143   1.259       .  A
O139        C142   1.270       .  A
O140        C152   1.270       .  A
O141       Fe550   2.088       .  S
O141        C154   1.269       .  A
C142        O147   1.272       .  A
C142        C271   1.479       .  S
C143        C261   1.483       .  S
O144       Fe549   1.957   1_556  S
O145        C148   1.271       .  A
O146       Fe549   2.050       .  S
O146        C148   1.269       .  A
O147       Fe551   2.080       .  S
C148        C198   1.471       .  S
O149        C154   1.261       .  A
O150        C152   1.273       .  A
C151        O153   1.272       .  A
C151        C191   1.490       .  S
C152        C181   1.487       .  S
O153       Fe551   2.072       .  S
C154        C211   1.484       .  S
Fe155       O171   2.056       .  S
Fe155       O161   2.039       .  S
Fe155       O168   2.038       .  S
Fe155       O160   2.066       .  S
Fe155       O166   1.951       .  S
Fe156       O159   2.087       .  S
Fe156       O163   2.070       .  S
Fe156       O167   2.104       .  S
Fe156       O172   2.056       .  S
Fe156       O166   1.969       .  S
Fe157       O175   2.059       .  S
Fe157       O162   2.076       .  S
Fe157       O169   2.101       .  S
Fe157       O158   2.069       .  S
Fe157       O166   1.967       .  S
O158        C165   1.267       .  A
O159        C173   1.276       .  A
O160        C165   1.268       .  A
O161        C164   1.267       .  A
O162        C174   1.271       .  A
O163        C176   1.266       .  A
C164        O169   1.275       .  A
C164        C231   1.476       .  S
C165        C221   1.484       .  S
O167        C170   1.279       .  A
O168        C170   1.269       .  A
C170        C281   1.485       .  S
O171        C176   1.266       .  A
O172        C174   1.268       .  A
C173        O175   1.271       .  A
C173        C188   1.491       .  S
C174        C178   1.488       .  S
C176        C288   1.484       .  S
C177        C178   1.408       .  A
C177        C182   1.399       .  A
C177        H184   1.084       .  S
C178        C179   1.409       .  A
C179        C180   1.397       .  A
C179        F186   1.357       .  S
C180        C181   1.407       .  A
C180        H185   1.084       .  S
C181        C182   1.408       .  A
C182        F183   1.357       .  S
C187        C188   1.406       .  A
C187        C192   1.400       .  A
C187        H194   1.083       .  S
C188        C189   1.412       .  A
C189        C190   1.399       .  A
C189        F196   1.358       .  S
C190        C191   1.406       .  A
C190        H195   1.083       .  S
C191        C192   1.411       .  A
C192        F193   1.357       .  S
C197        C198   1.399       .  A
C197        C202   1.391       .  A
C197        H204   1.082       .  S
C198        C199   1.406       .  A
C199        C200   1.406       .  A
C199        F206   1.357       .  S
C200        C201   1.407       .  A
C200        H205   1.081       .  S
C201        C202   1.411       .  A
C202        F203   1.358       .  S
C207        C208   1.407       .  A
C207        C212   1.407       .  A
C207        H214   1.083       .  S
C208        C209   1.402       .  A
C209        C210   1.389       .  A
C209        F216   1.359       .  S
C210        C211   1.408       .  A
C210        H215   1.084       .  S
C211        C212   1.409       .  A
C212        F213   1.357       .  S
C217        C218   1.403   1_655  A
C217        C222   1.404       .  A
C217        H224   1.084       .  S
C218        C219   1.403       .  A
C219        C220   1.394       .  A
C219        F226   1.358       .  S
C220        C221   1.406   1_455  A
C220        H225   1.084       .  S
C221        C222   1.411       .  A
C222        F223   1.357       .  S
C227        C228   1.409       .  A
C227        C232   1.407   1_455  A
C227        H234   1.081       .  S
C228        C229   1.411   1_455  A
C229        C230   1.391       .  A
C229        F236   1.358       .  S
C230        C231   1.400       .  A
C230        H235   1.082       .  S
C231        C232   1.407       .  A
C232        F233   1.357       .  S
C237        C238   1.406       .  A
C237        C242   1.397       .  A
C237        H244   1.084       .  S
C238        C239   1.410       .  A
C239        C240   1.398       .  A
C239        F246   1.357       .  S
C240        C241   1.405       .  A
C240        H245   1.084       .  S
C241        C242   1.409       .  A
C242        F243   1.358       .  S
C247        C248   1.406       .  A
C247        C252   1.399       .  A
C247        H254   1.083       .  S
C248        C249   1.411       .  A
C249        C250   1.398       .  A
C249        F256   1.358       .  S
C250        C251   1.407       .  A
C250        H255   1.083       .  S
C251        C252   1.411       .  A
C252        F253   1.357       .  S
C257        C258   1.400       .  A
C257        C262   1.387       .  A
C257        H264   1.084       .  S
C258        C259   1.409       .  A
C259        C260   1.405   1_565  A
C259        F266   1.357       .  S
C260        C261   1.406       .  A
C260        H265   1.083       .  S
C261        C262   1.413   1_545  A
C262        F263   1.358       .  S
C267        C268   1.407   1_545  A
C267        C272   1.386       .  A
C267        H274   1.084       .  S
C268        C269   1.410       .  A
C269        C270   1.407   1_565  A
C269        F276   1.357       .  S
C270        C271   1.409       .  A
C270        H275   1.084       .  S
C271        C272   1.403       .  A
C272        F273   1.358       .  S
C277        C278   1.404       .  A
C277        C282   1.391       .  A
C277        H284   1.085       .  S
C278        C279   1.411       .  A
C279        C280   1.405       .  A
C279        F286   1.357       .  S
C280        C281   1.407       .  A
C280        H285   1.085       .  S
C281        C282   1.410       .  A
C282        F283   1.358       .  S
C287        C288   1.404       .  A
C287        C292   1.389       .  A
C287        H294   1.084       .  S
C288        C289   1.412       .  A
C289        C290   1.407       .  A
C289        F296   1.357       .  S
C290        C291   1.405       .  A
C290        H295   1.084       .  S
C291        C292   1.402       .  A
C292        F293   1.356       .  S
C297        C298   1.405       .  A
C297        C302   1.398       .  A
C297        H304   1.084       .  S
C298        C299   1.411       .  A
C299        C300   1.400       .  A
C299        F306   1.357       .  S
C300        C301   1.406       .  A
C300        H305   1.084       .  S
C301        C302   1.411       .  A
C302        F303   1.357       .  S
C307        C308   1.406       .  A
C307        C312   1.399       .  A
C307        H314   1.084       .  S
C308        C309   1.411       .  A
C309        C310   1.399       .  A
C309        F316   1.358       .  S
C310        C311   1.406       .  A
C310        H315   1.084       .  S
C311        C312   1.410       .  A
C312        F313   1.358       .  S
C317        C318   1.407       .  A
C317        C322   1.403       .  A
C317        H324   1.083       .  S
C318        C319   1.411   1_565  A
C319        C320   1.388       .  A
C319        F326   1.358       .  S
C320        C321   1.399       .  A
C320        H325   1.085       .  S
C321        C322   1.407   1_545  A
C322        F323   1.357       .  S
C327        C328   1.408       .  A
C327        C332   1.406   1_565  A
C327        H334   1.083       .  S
C328        C329   1.404       .  A
C329        C330   1.388       .  A
C329        F336   1.358       .  S
C330        C331   1.407   1_565  A
C330        H335   1.083       .  S
C331        C332   1.409       .  A
C332        F333   1.357       .  S
C337        C338   1.399       .  A
C337        C342   1.392       .  A
C337        H344   1.085       .  S
C338        C339   1.408       .  A
C339        C340   1.407       .  A
C339        F346   1.357       .  S
C340        C341   1.407       .  A
C340        H345   1.083       .  S
C341        C342   1.413       .  A
C342        F343   1.358       .  S
C347        C348   1.407       .  A
C347        C352   1.388       .  A
C347        H354   1.083       .  S
C348        C349   1.410       .  A
C349        C350   1.405       .  A
C349        F356   1.357       .  S
C350        C351   1.405       .  A
C350        H355   1.083       .  S
C351        C352   1.402       .  A
C352        F353   1.359       .  S
C357        C358   1.406       .  A
C357        C362   1.409       .  A
C357        H364   1.083       .  S
C358        C359   1.407       .  A
C359        C360   1.385       .  A
C359        F366   1.358       .  S
C360        C361   1.404       .  A
C360        H365   1.083       .  S
C361        C362   1.413       .  A
C362        F363   1.357       .  S
C367        C368   1.409       .  A
C367        C372   1.407       .  A
C367        H374   1.083       .  S
C368        C369   1.409       .  A
C369        C370   1.387       .  A
C369        F376   1.358       .  S
C370        C371   1.404       .  A
C370        H375   1.084       .  S
C371        C372   1.410       .  A
C372        F373   1.357       .  S
C377        C378   1.405       .  A
C377        C382   1.407   1_455  A
C377        H384   1.083   1_455  S
C378        C379   1.405       .  A
C379        C380   1.392       .  A
C379        F386   1.359       .  S
C380        C381   1.406   1_455  A
C380        H385   1.083       .  S
C381        C382   1.412       .  A
C382        F383   1.357       .  S
C387        C388   1.409       .  A
C387        C392   1.406   1_455  A
C387        H394   1.084       .  S
C388        C389   1.408   1_455  A
C389        C390   1.391       .  A
C389        F396   1.358       .  S
C390        C391   1.399       .  A
C390        H395   1.082       .  S
C391        C392   1.406       .  A
C392        F393   1.357   1_655  S
C397        C398   1.407       .  A
C397        C402   1.399       .  A
C397        H404   1.083       .  S
C398        C399   1.410       .  A
C399        C400   1.394       .  A
C399        F406   1.358       .  S
C400        C401   1.405       .  A
C400        H405   1.083       .  S
C401        C402   1.410       .  A
C402        F403   1.357       .  S
C407        C408   1.405       .  A
C407        C412   1.397       .  A
C407        H414   1.084       .  S
C408        C409   1.411       .  A
C409        C410   1.397       .  A
C409        F416   1.357       .  S
C410        C411   1.405       .  A
C410        H415   1.084       .  S
C411        C412   1.411       .  A
C412        F413   1.358       .  S
Fe417       O433   2.035       .  S
Fe417       O423   2.056       .  S
Fe417       O430   2.047       .  S
Fe417       O422   2.039       .  S
Fe417       O428   1.947       .  S
Fe418       O421   2.056       .  S
Fe418       O425   2.098       .  S
Fe418       O429   2.076       .  S
Fe418       O434   2.076       .  S
Fe418       O428   1.974       .  S
Fe419       O437   2.077       .  S
Fe419       O424   2.055       .  S
Fe419       O431   2.074       .  S
Fe419       O420   2.106       .  S
Fe419       O428   1.970       .  S
O420        C427   1.276       .  A
O421        C435   1.268       .  A
O422        C427   1.267       .  A
O423        C426   1.265       .  A
O424        C436   1.270       .  A
O425        C438   1.276       .  A
C426        O431   1.267       .  A
C426        C804   1.483       .  S
C427        C794   1.478       .  S
O429        C432   1.267       .  A
O430        C432   1.265       .  A
C432        C777   1.487       .  S
O433        C438   1.268       .  A
O434        C436   1.273       .  A
C435        O437   1.273       .  A
C435        C824   1.487       .  S
C436        C814   1.485       .  S
C438        C784   1.485       .  S
Fe439       O455   2.044       .  S
Fe439       O445   2.051       .  S
Fe440       O451   2.087   1_554  S
Fe440       O456   2.053   1_554  S
Fe440       O450   1.967       .  S
Fe441       O446   2.078       .  S
Fe441       O442   2.075       .  S
Fe441       O450   1.969   1_556  S
O442        C449   1.267       .  A
O443        C457   1.272       .  A
O444        C449   1.264       .  A
O445        C448   1.270       .  A
O446        C458   1.273       .  A
O447        C460   1.266       .  A
C448        O453   1.275       .  A
C448        C754   1.476       .  S
C449        C764   1.483       .  S
O451        C454   1.274       .  A
O452        C454   1.271       .  A
C454        C744   1.477       .  S
O455        C460   1.262       .  A
O456        C458   1.268       .  A
C457        O459   1.271       .  A
C457        C817   1.484       .  S
C458        C827   1.486       .  S
C460        C734   1.480       .  S
Fe461       O477   2.049       .  S
Fe461       O467   2.042       .  S
Fe462       O465   2.075   1_554  S
Fe462       O469   2.076   1_554  S
Fe463       O468   2.072       .  S
Fe463       O464   2.081       .  S
Fe463       O472   1.984       .  S
O464        C471   1.271       .  A
O465        C479   1.273       .  A
O466        C471   1.270       .  A
O467        C470   1.264       .  A
O468        C480   1.270       .  A
O469        C482   1.267       .  A
C470        O475   1.271       .  A
C470        C807   1.473       .  S
C471        C797   1.488       .  S
O473        C476   1.272       .  A
O474        C476   1.269       .  A
C476        C694   1.486       .  S
O477        C482   1.265       .  A
O478        C480   1.268       .  A
C479        O481   1.273       .  A
C479        C714   1.488       .  S
C480        C724   1.487       .  S
C482        C707   1.474       .  S
Fe483       O499   2.041       .  S
Fe483       O489   2.038       .  S
Fe483       O496   2.034       .  S
Fe483       O488   2.040       .  S
Fe483       O494   1.952       .  S
Fe484       O487   2.064       .  S
Fe484       O491   2.083       .  S
Fe484       O495   2.083       .  S
Fe484       O500   2.065       .  S
Fe484       O494   1.980       .  S
Fe485       O503   2.071       .  S
Fe485       O490   2.076       .  S
Fe485       O497   2.091       .  S
Fe485       O486   2.089       .  S
Fe485       O494   1.979       .  S
O486        C493   1.273       .  A
O487        C501   1.270       .  A
O488        C493   1.268       .  A
O489        C492   1.262       .  A
O490        C502   1.273       .  A
O491        C504   1.272       .  A
C492        O497   1.271       .  A
C492        C757   1.485       .  S
C493        C767   1.472       .  S
O495        C498   1.268       .  A
O496        C498   1.262       .  A
C498        C684   1.487       .  S
O499        C504   1.269       .  A
O500        C502   1.270       .  A
C501        O503   1.271       .  A
C501        C727   1.486       .  S
C502        C717   1.488       .  S
C504        C674   1.475       .  S
Fe505       O521   2.040   1_554  S
Fe505       O511   2.046   1_554  S
Fe506       O509   2.068       .  S
Fe506       O513   2.091       .  S
Fe507       O512   2.065       .  S
Fe507       O508   2.095       .  S
Fe507       O516   1.981       .  S
O508        C515   1.273       .  A
O509        C523   1.271       .  A
O510        C515   1.265       .  A
O511        C514   1.265       .  A
O512        C524   1.271       .  A
O513        C526   1.273       .  A
C514        O519   1.270       .  A
C514        C644   1.486       .  S
C515        C634   1.472       .  S
O517        C520   1.268       .  A
O518        C520   1.263       .  A
C520        C774   1.481       .  S
O521        C526   1.268       .  A
O522        C524   1.271       .  A
C523        O525   1.272       .  A
C523        C667   1.490       .  S
C524        C657   1.484       .  S
C526        C787   1.485       .  S
Fe527       O543   2.047       .  S
Fe527       O533   2.044       .  S
Fe527       O540   2.043       .  S
Fe527       O532   2.045       .  S
Fe527       O538   1.954       .  S
Fe528       O531   2.068       .  S
Fe528       O535   2.091       .  S
Fe528       O539   2.081       .  S
Fe528       O544   2.069       .  S
Fe528       O538   1.977       .  S
Fe529       O547   2.067       .  S
Fe529       O534   2.064       .  S
Fe529       O541   2.076       .  S
Fe529       O530   2.083       .  S
Fe529       O538   1.979       .  S
O530        C537   1.272       .  A
O531        C545   1.271       .  A
O532        C537   1.269       .  A
O533        C536   1.264       .  A
O534        C546   1.270       .  A
O535        C548   1.274       .  A
C536        O541   1.268       .  A
C536        C747   1.483       .  S
C537        C737   1.471       .  S
O539        C542   1.268       .  A
O540        C542   1.262       .  A
C542        C617   1.483       .  S
O543        C548   1.270       .  A
O544        C546   1.272       .  A
C545        O547   1.270       .  A
C545        C664   1.489       .  S
C546        C654   1.487       .  S
C548        C624   1.476       .  S
Fe549       O565   2.031   1_554  S
Fe549       O555   2.049   1_554  S
Fe550       O561   2.086       .  S
Fe550       O566   2.077       .  S
Fe550       O560   1.985       .  S
Fe551       O556   2.059       .  S
Fe551       O552   2.086       .  S
Fe551       O560   1.986       .  S
O552        C559   1.269       .  A
O553        C567   1.269       .  A
O554        C559   1.259       .  A
O555        C558   1.270       .  A
O556        C568   1.270       .  A
O557        C570   1.269       .  A
C558        O563   1.272       .  A
C558        C687   1.480       .  S
C559        C677   1.484       .  S
O561        C564   1.272       .  A
O562        C564   1.269       .  A
C564        C614   1.472       .  S
O565        C570   1.261       .  A
O566        C568   1.273       .  A
C567        O569   1.271       .  A
C567        C607   1.487       .  S
C568        C597   1.488       .  S
C570        C627   1.485       .  S
Fe571       O587   2.053       .  S
Fe571       O577   2.038       .  S
Fe571       O584   2.038       .  S
Fe571       O576   2.063       .  S
Fe571       O582   1.953       .  S
Fe572       O575   2.083       .  S
Fe572       O579   2.071       .  S
Fe572       O583   2.100       .  S
Fe572       O588   2.058       .  S
Fe572       O582   1.973       .  S
Fe573       O591   2.056       .  S
Fe573       O578   2.077       .  S
Fe573       O585   2.101       .  S
Fe573       O574   2.070       .  S
Fe573       O582   1.970       .  S
O574        C581   1.267       .  A
O575        C589   1.275       .  A
O576        C581   1.267       .  A
O577        C580   1.267       .  A
O578        C590   1.271       .  A
O579        C592   1.265       .  A
C580        O585   1.275       .  A
C580        C647   1.477       .  S
C581        C637   1.483       .  S
O583        C586   1.278       .  A
O584        C586   1.268       .  A
C586        C697   1.484       .  S
O587        C592   1.265       .  A
O588        C590   1.268       .  A
C589        O591   1.270       .  A
C589        C604   1.489       .  S
C590        C594   1.489       .  S
C592        C704   1.484       .  S
C593        C594   1.409       .  A
C593        C598   1.399       .  A
C593        H600   1.084       .  S
C594        C595   1.409       .  A
C595        C596   1.398       .  A
C595        F602   1.357       .  S
C596        C597   1.408       .  A
C596        H601   1.084       .  S
C597        C598   1.408       .  A
C598        F599   1.357       .  S
C603        C604   1.406       .  A
C603        C608   1.400       .  A
C603        H610   1.083       .  S
C604        C605   1.412       .  A
C605        C606   1.397       .  A
C605        F612   1.357       .  S
C606        C607   1.405       .  A
C606        H611   1.084       .  S
C607        C608   1.411       .  A
C608        F609   1.357       .  S
C613        C614   1.399       .  A
C613        C618   1.392       .  A
C613        H620   1.082       .  S
C614        C615   1.406       .  A
C615        C616   1.406       .  A
C615        F622   1.357       .  S
C616        C617   1.407       .  A
C616        H621   1.081       .  S
C617        C618   1.410       .  A
C618        F619   1.358       .  S
C623        C624   1.407       .  A
C623        C628   1.408       .  A
C623        H630   1.083       .  S
C624        C625   1.402       .  A
C625        C626   1.389       .  A
C625        F632   1.359       .  S
C626        C627   1.408       .  A
C626        H631   1.084       .  S
C627        C628   1.409       .  A
C628        F629   1.357       .  S
C633        C634   1.403   1_655  A
C633        C638   1.405       .  A
C633        H640   1.084       .  S
C634        C635   1.403       .  A
C635        C636   1.393       .  A
C635        F642   1.358       .  S
C636        C637   1.406   1_455  A
C636        H641   1.084       .  S
C637        C638   1.411       .  A
C638        F639   1.357       .  S
C643        C644   1.409       .  A
C643        C648   1.407   1_455  A
C643        H650   1.081       .  S
C644        C645   1.411   1_455  A
C645        C646   1.390       .  A
C645        F652   1.358       .  S
C646        C647   1.401       .  A
C646        H651   1.082       .  S
C647        C648   1.407       .  A
C648        F649   1.357       .  S
C653        C654   1.406       .  A
C653        C658   1.397       .  A
C653        H660   1.083       .  S
C654        C655   1.411       .  A
C655        C656   1.398       .  A
C655        F662   1.357       .  S
C656        C657   1.405       .  A
C656        H661   1.084       .  S
C657        C658   1.409       .  A
C658        F659   1.358       .  S
C663        C664   1.406       .  A
C663        C668   1.399       .  A
C663        H670   1.083       .  S
C664        C665   1.410       .  A
C665        C666   1.399       .  A
C665        F672   1.358       .  S
C666        C667   1.408       .  A
C666        H671   1.083       .  S
C667        C668   1.410       .  A
C668        F669   1.357       .  S
C673        C674   1.399       .  A
C673        C678   1.387       .  A
C673        H680   1.084       .  S
C674        C675   1.408       .  A
C675        C676   1.405   1_565  A
C675        F682   1.357       .  S
C676        C677   1.407       .  A
C676        H681   1.083       .  S
C677        C678   1.413   1_545  A
C678        F679   1.358       .  S
C683        C684   1.407   1_545  A
C683        C688   1.386       .  A
C683        H690   1.084   1_545  S
C684        C685   1.410       .  A
C685        C686   1.408   1_565  A
C685        F692   1.357       .  S
C686        C687   1.409       .  A
C686        H691   1.084       .  S
C687        C688   1.404       .  A
C688        F689   1.358       .  S
C693        C694   1.405       .  A
C693        C698   1.391       .  A
C693        H700   1.085       .  S
C694        C695   1.411       .  A
C695        C696   1.405       .  A
C695        F702   1.357       .  S
C696        C697   1.406       .  A
C696        H701   1.085       .  S
C697        C698   1.410       .  A
C698        F699   1.358       .  S
C703        C704   1.404       .  A
C703        C708   1.389       .  A
C703        H710   1.084       .  S
C704        C705   1.412       .  A
C705        C706   1.407       .  A
C705        F712   1.357       .  S
C706        C707   1.405       .  A
C706        H711   1.084       .  S
C707        C708   1.402       .  A
C708        F709   1.356       .  S
C713        C714   1.406       .  A
C713        C718   1.398       .  A
C713        H720   1.084       .  S
C714        C715   1.411       .  A
C715        C716   1.400       .  A
C715        F722   1.357       .  S
C716        C717   1.406       .  A
C716        H721   1.084       .  S
C717        C718   1.411       .  A
C718        F719   1.358       .  S
C723        C724   1.406       .  A
C723        C728   1.398       .  A
C723        H730   1.084       .  S
C724        C725   1.410       .  A
C725        C726   1.399       .  A
C725        F732   1.358       .  S
C726        C727   1.406       .  A
C726        H731   1.084       .  S
C727        C728   1.410       .  A
C728        F729   1.358       .  S
C733        C734   1.407       .  A
C733        C738   1.403       .  A
C733        H740   1.084       .  S
C734        C735   1.410   1_565  A
C735        C736   1.388       .  A
C735        F742   1.358       .  S
C736        C737   1.399       .  A
C736        H741   1.085       .  S
C737        C738   1.407   1_545  A
C738        F739   1.357       .  S
C743        C744   1.407       .  A
C743        C748   1.404   1_565  A
C743        H750   1.083       .  S
C744        C745   1.403       .  A
C745        C746   1.390       .  A
C745        F752   1.358       .  S
C746        C747   1.407   1_565  A
C746        H751   1.083       .  S
C747        C748   1.409       .  A
C748        F749   1.357       .  S
C753        C754   1.399       .  A
C753        C758   1.392       .  A
C753        H760   1.085       .  S
C754        C755   1.408       .  A
C755        C756   1.407       .  A
C755        F762   1.357       .  S
C756        C757   1.407       .  A
C756        H761   1.083       .  S
C757        C758   1.412       .  A
C758        F759   1.358       .  S
C763        C764   1.407       .  A
C763        C768   1.387       .  A
C763        H770   1.083       .  S
C764        C765   1.410       .  A
C765        C766   1.406       .  A
C765        F772   1.357       .  S
C766        C767   1.406       .  A
C766        H771   1.083       .  S
C767        C768   1.402       .  A
C768        F769   1.359       .  S
C773        C774   1.407       .  A
C773        C778   1.409       .  A
C773        H780   1.083       .  S
C774        C775   1.407       .  A
C775        C776   1.385       .  A
C775        F782   1.358       .  S
C776        C777   1.405       .  A
C776        H781   1.083       .  S
C777        C778   1.412       .  A
C778        F779   1.357       .  S
C783        C784   1.409       .  A
C783        C788   1.407       .  A
C783        H790   1.083       .  S
C784        C785   1.409       .  A
C785        C786   1.387       .  A
C785        F792   1.358       .  S
C786        C787   1.404       .  A
C786        H791   1.084       .  S
C787        C788   1.410       .  A
C788        F789   1.357       .  S
C793        C794   1.405   1_655  A
C793        C798   1.407       .  A
C793        H800   1.083       .  S
C794        C795   1.405       .  A
C795        C796   1.392       .  A
C795        F802   1.359       .  S
C796        C797   1.406   1_455  A
C796        H801   1.083       .  S
C797        C798   1.412       .  A
C798        F799   1.357       .  S
C803        C804   1.409       .  A
C803        C808   1.407   1_455  A
C803        H810   1.084       .  S
C804        C805   1.408   1_455  A
C805        C806   1.391       .  A
C805        F812   1.358       .  S
C806        C807   1.399       .  A
C806        H811   1.082       .  S
C807        C808   1.406       .  A
C808        F809   1.357   1_655  S
C813        C814   1.407       .  A
C813        C818   1.399       .  A
C813        H820   1.083       .  S
C814        C815   1.410       .  A
C815        C816   1.394       .  A
C815        F822   1.358       .  S
C816        C817   1.406       .  A
C816        H821   1.083       .  S
C817        C818   1.410       .  A
C818        F819   1.357       .  S
C823        C824   1.405       .  A
C823        C828   1.397       .  A
C823        H830   1.084       .  S
C824        C825   1.411       .  A
C825        C826   1.398       .  A
C825        F832   1.357       .  S
C826        C827   1.405       .  A
C826        H831   1.084       .  S
C827        C828   1.411       .  A
C828        F829   1.358       .  S
