geometry optimzed in LAMMPS
_audit_creation_date              2020-12-01 
_audit_creation_method            'lammps2cif' 
_symmetry_space_group_name_H-M    'P1' 
_symmetry_Int_Tables_number       1 
_symmetry_cell_setting            triclinic 
loop_ 
_symmetry_equiv_pos_as_xyz 
  x,y,z 
_cell_length_a                    43.3750721 
_cell_length_b                    43.36049720777483 
_cell_length_c                    30.309830688975733 
_cell_angle_alpha                 90.0127056140454 
_cell_angle_beta                  89.94363418264614 
_cell_angle_gamma                 89.94140092753779 
loop_ 
_atom_site_label 
_atom_site_type_symbol 
_atom_site_fract_x 
_atom_site_fract_y 
_atom_site_fract_z 
_atom_site_charge 
O1          O  0.40121907  0.83582346  0.00279076    -0.74600
O2          O  0.39864149  0.92420812  0.00122806    -0.74700
O3          O  0.39839135  0.88063790  0.06511196    -0.74700
O4          O  0.40162676  0.87940001  0.93890217    -0.74800
O5          O  0.35023921  0.87872407  0.93642298    -0.74700
O6          O  0.34704905  0.87852892  0.06264786    -0.74700
O7          O  0.34728323  0.92271088  0.99965453    -0.74600
O8          O  0.34980066  0.83455599  0.99930018    -0.74700
Ni9        Ni  0.40181989  0.88007030  0.00210008     1.25400
Ni10       Ni  0.34677197  0.87857677  0.99941324     1.25400
C11         C  0.37586246  0.82079049  0.00100060     0.87600
C12         C  0.37249334  0.93801919  0.00077123     0.87500
C13         C  0.37220976  0.87992684  0.08466945     0.87500
C14         C  0.37643983  0.87906397  0.91688444     0.87700
O15         O  0.39941039  0.83231286  0.49760855    -0.74600
O16         O  0.39773714  0.92068084  0.50057685    -0.74700
O17         O  0.40104218  0.87551573  0.56204932    -0.74700
O18         O  0.39624344  0.87746587  0.43611165    -0.74800
O19         O  0.34496848  0.87633310  0.43983788    -0.74700
O20         O  0.34976966  0.87474202  0.56611045    -0.74700
O21         O  0.34642521  0.91961919  0.50442296    -0.74600
O22         O  0.34800801  0.83144849  0.50175611    -0.74700
Ni23       Ni  0.40043738  0.87652589  0.49891488     1.25400
Ni24       Ni  0.34546199  0.87550024  0.50314459     1.25400
C25         C  0.37393881  0.81748162  0.49937024     0.87600
C26         C  0.37177735  0.93469798  0.50346473     0.87500
C27         C  0.37622764  0.87513042  0.58494690     0.87500
C28         C  0.36987377  0.87730199  0.41710183     0.87700
O29         O  0.35060094  0.27368655  0.00202796    -0.74600
O30         O  0.34814733  0.18549755  0.99972016    -0.74700
O31         O  0.35047088  0.22876191  0.06390440    -0.74700
O32         O  0.34829449  0.23061142  0.93775751    -0.74800
O33         O  0.39965351  0.22854169  0.93590923    -0.74700
O34         O  0.40186811  0.22808262  0.06220467    -0.74700
O35         O  0.39953429  0.18411530  0.99891299    -0.74600
O36         O  0.40205629  0.27235051  0.99931893    -0.74700
Ni37       Ni  0.34754538  0.22966923  0.00089580     1.25400
Ni38       Ni  0.40262023  0.22818903  0.99897765     1.25400
C39         C  0.37669707  0.28738959  0.00093172     0.87600
C40         C  0.37346519  0.17026306  0.99975658     0.87500
C41         C  0.37649500  0.22847734  0.08386396     0.87500
C42         C  0.37363458  0.23020953  0.91605367     0.87700
O43         O  0.34932435  0.27062239  0.49819210    -0.74600
O44         O  0.34616435  0.18241908  0.50161356    -0.74700
O45         O  0.34731241  0.22794687  0.56283258    -0.74700
O46         O  0.34833344  0.22547724  0.43656244    -0.74800
O47         O  0.39970025  0.22365519  0.43732570    -0.74700
O48         O  0.39866608  0.22607994  0.56354266    -0.74700
O49         O  0.39751417  0.18069296  0.50231765    -0.74600
O50         O  0.40079282  0.26883829  0.49908061    -0.74700
Ni51       Ni  0.34594024  0.22662179  0.49969460     1.25400
Ni52       Ni  0.40099484  0.22468712  0.50052109     1.25400
C53         C  0.37554349  0.28410314  0.49865095     0.87600
C54         C  0.37136052  0.16701416  0.50328223     0.87500
C55         C  0.37288260  0.22802677  0.58397356     0.87500
C56         C  0.37419387  0.22477143  0.41610564     0.87700
O57         O  0.83247657  0.69958232  0.99834830    -0.74600
O58         O  0.92075280  0.70165833  0.99782415    -0.74700
O59         O  0.87659496  0.69982537  0.06111515    -0.74700
O60         O  0.87643705  0.70129553  0.93512631    -0.74800
O61         O  0.87548439  0.75256294  0.93577372    -0.74700
O62         O  0.87566562  0.75126299  0.06233578    -0.74700
O63         O  0.91962184  0.75305895  0.99905134    -0.74600
O64         O  0.83137965  0.75107372  0.99947135    -0.74700
Ni65       Ni  0.87662209  0.69877772  0.99804636     1.25400
Ni66       Ni  0.87547042  0.75384490  0.99916764     1.25400
C67         C  0.81753875  0.72502803  0.99916863     0.87600
C68         C  0.93474001  0.72767872  0.99827795     0.87500
C69         C  0.87626062  0.72528752  0.08249232     0.87500
C70         C  0.87621858  0.72700389  0.91444481     0.87700
O71         O  0.83108354  0.69721037  0.49943673    -0.74600
O72         O  0.91921173  0.69874818  0.49797937    -0.74700
O73         O  0.87535833  0.69904959  0.56211913    -0.74700
O74         O  0.87447540  0.69731739  0.43568243    -0.74800
O75         O  0.87359626  0.74870536  0.43460683    -0.74700
O76         O  0.87502912  0.75051120  0.56050350    -0.74700
O77         O  0.91848352  0.75017039  0.49653579    -0.74600
O78         O  0.83025430  0.74872475  0.49843467    -0.74700
Ni79       Ni  0.87514551  0.69622713  0.49891925     1.25400
Ni80       Ni  0.87434809  0.75135480  0.49750635     1.25400
C81         C  0.81630256  0.72272147  0.49878261     0.87600
C82         C  0.93336418  0.72463471  0.49651429     0.87500
C83         C  0.87490764  0.72513666  0.58202726     0.87500
C84         C  0.87316683  0.72281349  0.41434688     0.87700
O85         O  0.26960257  0.75518456  0.00294529    -0.74600
O86         O  0.18135777  0.75571631  0.00324386    -0.74700
O87         O  0.22550604  0.75534430  0.06633742    -0.74700
O88         O  0.22543866  0.75539809  0.93982275    -0.74800
O89         O  0.22517301  0.70396177  0.93994178    -0.74700
O90         O  0.22562779  0.70389268  0.06606838    -0.74700
O91         O  0.18104730  0.70429320  0.00358916    -0.74600
O92         O  0.26939044  0.70367116  0.00261666    -0.74700
Ni93       Ni  0.22546633  0.75725535  0.00309632     1.25400
Ni94       Ni  0.22524829  0.70212448  0.00304622     1.25400
C95         C  0.28389405  0.72935480  0.00262580     0.87600
C96         C  0.16664861  0.73012655  0.00331162     0.87500
C97         C  0.22597879  0.72955096  0.08696261     0.87500
C98         C  0.22571425  0.72963440  0.91907592     0.87700
O99         O  0.26808750  0.75099336  0.50421938    -0.74600
O100        O  0.17997768  0.75120699  0.50179465    -0.74700
O101        O  0.22304142  0.75085420  0.56607418    -0.74700
O102        O  0.22490168  0.75129089  0.44003213    -0.74800
O103        O  0.22485630  0.69989934  0.43942676    -0.74700
O104        O  0.22280550  0.69944402  0.56588449    -0.74700
O105        O  0.17975570  0.69980694  0.50127408    -0.74600
O106        O  0.26801411  0.69948120  0.50384886    -0.74700
Ni107      Ni  0.22401211  0.75289759  0.50308035     1.25400
Ni108      Ni  0.22386186  0.69779527  0.50263985     1.25400
C109        C  0.28244037  0.72521491  0.50410633     0.87600
C110        C  0.16533112  0.72560461  0.50064143     0.87500
C111        C  0.22230092  0.72512749  0.58680246     0.87500
C112        C  0.22545774  0.72573401  0.41888279     0.87700
O113        O  0.70026964  0.26833442  0.99782629    -0.74600
O114        O  0.69816727  0.18016976  0.99738776    -0.74700
O115        O  0.69923537  0.22428831  0.06099057    -0.74700
O116        O  0.69952762  0.22421946  0.93451572    -0.74800
O117        O  0.75092075  0.22281668  0.93493189    -0.74700
O118        O  0.75059439  0.22295655  0.06092012    -0.74700
O119        O  0.74954107  0.17876744  0.99765676    -0.74600
O120        O  0.75174785  0.26717064  0.99797811    -0.74700
Ni121      Ni  0.69746104  0.22429823  0.99772204     1.25400
Ni122      Ni  0.75253381  0.22289009  0.99792219     1.25400
C123        C  0.72629557  0.28216346  0.99796434     0.87600
C124        C  0.72345351  0.16492743  0.99654119     0.87500
C125        C  0.72495744  0.22407989  0.08180454     0.87500
C126        C  0.72533454  0.22303365  0.91394107     0.87700
O127        O  0.70068485  0.26721530  0.50020831    -0.74600
O128        O  0.70115556  0.17897785  0.49647507    -0.74700
O129        O  0.70112116  0.22182586  0.56146387    -0.74700
O130        O  0.70059803  0.22437622  0.43537214    -0.74800
O131        O  0.75200316  0.22425672  0.43472647    -0.74700
O132        O  0.75252108  0.22216324  0.56112375    -0.74700
O133        O  0.75253202  0.17905189  0.49622268    -0.74600
O134        O  0.75217868  0.26733114  0.49946650    -0.74700
Ni135      Ni  0.69906692  0.22308258  0.49844275     1.25400
Ni136      Ni  0.75415725  0.22320528  0.49791464     1.25400
C137        C  0.72638883  0.28166921  0.50017123     0.87600
C138        C  0.72687475  0.16445766  0.49510481     0.87500
C139        C  0.72685954  0.22149682  0.58210358     0.87500
C140        C  0.72616714  0.22487220  0.41424251     0.87700
O141        O  0.75075217  0.82996712  0.99498576    -0.74600
O142        O  0.75040596  0.91825849  0.99058503    -0.74700
O143        O  0.75149372  0.87571392  0.05576593    -0.74700
O144        O  0.75006730  0.87262462  0.92984123    -0.74800
O145        O  0.69867997  0.87252230  0.93072490    -0.74700
O146        O  0.70007549  0.87517626  0.05724701    -0.74700
O147        O  0.69904173  0.91791275  0.99197192    -0.74600
O148        O  0.69925268  0.82986423  0.99597452    -0.74700
Ni149      Ni  0.75250892  0.87412917  0.99275925     1.25400
Ni150      Ni  0.69741721  0.87387666  0.99403814     1.25400
C151        C  0.72502004  0.81554555  0.99614201     0.87600
C152        C  0.72459092  0.93264209  0.99021859     0.87500
C153        C  0.72609153  0.87602855  0.07726556     0.87500
C154        C  0.72423850  0.87202431  0.90944528     0.87700
O155        O  0.75270964  0.82923738  0.49374175    -0.74600
O156        O  0.75336984  0.91763091  0.49296161    -0.74700
O157        O  0.75250600  0.87357123  0.55671522    -0.74700
O158        O  0.75386456  0.87332435  0.43033766    -0.74800
O159        O  0.70246313  0.87398241  0.42936545    -0.74700
O160        O  0.70112063  0.87419882  0.55562220    -0.74700
O161        O  0.70193863  0.91796378  0.49230268    -0.74600
O162        O  0.70121776  0.82992187  0.49273930    -0.74700
Ni163      Ni  0.75497613  0.87340118  0.49351530     1.25400
Ni164      Ni  0.69987096  0.87398253  0.49247514     1.25400
C165        C  0.72675961  0.81520166  0.49340755     0.87600
C166        C  0.72770372  0.93229995  0.49196393     0.87500
C167        C  0.72657416  0.87420730  0.57698767     0.87500
C168        C  0.72838364  0.87418545  0.40904853     0.87700
O169        O  0.37788714  0.33499652  0.03858843    -0.74600
O170        O  0.37554583  0.42326553  0.04000665    -0.74700
O171        O  0.33274044  0.37779181  0.04023127    -0.74700
O172        O  0.42096132  0.38027452  0.03845606    -0.74800
O173        O  0.42040967  0.38046075  0.96494352    -0.74700
O174        O  0.33204934  0.37892611  0.96655393    -0.74700
O175        O  0.37557854  0.42374997  0.96638645    -0.74600
O176        O  0.37691701  0.33558487  0.96489467    -0.74700
Ni177      Ni  0.37684275  0.37908064  0.04195354     1.25400
Ni178      Ni  0.37622667  0.37970073  0.96305567     1.25400
C179        C  0.37739841  0.32091610  0.00149698     0.87600
C180        C  0.37513652  0.43800451  0.00338205     0.87500
C181        C  0.31800147  0.37782435  0.00369690     0.87500
C182        C  0.43527201  0.38099855  0.00147274     0.87700
O183        O  0.33243398  0.37675346  0.46588197    -0.74600
O184        O  0.42075151  0.37635319  0.46329288    -0.74700
O185        O  0.37623932  0.33247684  0.46301286    -0.74700
O186        O  0.37703888  0.42064306  0.46561612    -0.74800
O187        O  0.37776214  0.41980086  0.53918467    -0.74700
O188        O  0.37738095  0.33152439  0.53669730    -0.74700
O189        O  0.42151499  0.37560700  0.53684775    -0.74600
O190        O  0.33356415  0.37576306  0.53957061    -0.74700
Ni191      Ni  0.37656368  0.37659342  0.46178606     1.25400
Ni192      Ni  0.37758482  0.37562187  0.54069105     1.25400
C193        C  0.31864062  0.37613746  0.50324642     0.87600
C194        C  0.43565053  0.37642397  0.49979933     0.87500
C195        C  0.37656517  0.31762723  0.49944940     0.87500
C196        C  0.37798878  0.43474308  0.50271517     0.87700
O197        O  0.33221545  0.72924945  0.03856751    -0.74600
O198        O  0.42042920  0.72786534  0.03664585    -0.74700
O199        O  0.37695209  0.77279155  0.03772855    -0.74700
O200        O  0.37596654  0.68459973  0.03750027    -0.74800
O201        O  0.37554484  0.68446650  0.96396280    -0.74700
O202        O  0.37592771  0.77279201  0.96404430    -0.74700
O203        O  0.41978811  0.72798921  0.96307890    -0.74600
O204        O  0.33153667  0.72892796  0.96487661    -0.74700
Ni205      Ni  0.37638373  0.72866947  0.04023265     1.25400
Ni206      Ni  0.37564612  0.72860547  0.96134034     1.25400
C207        C  0.31747938  0.72917912  0.00201227     0.87600
C208        C  0.43461492  0.72696109  0.99957897     0.87500
C209        C  0.37648011  0.78719430  0.00090865     0.87500
C210        C  0.37637483  0.66998285  0.00078949     0.87700
O211        O  0.37342014  0.76926229  0.46282615    -0.74600
O212        O  0.37376329  0.68086116  0.46463320    -0.74700
O213        O  0.32962812  0.72482941  0.46561707    -0.74700
O214        O  0.41775407  0.72544112  0.46136920    -0.74800
O215        O  0.41944755  0.72529074  0.53499319    -0.74700
O216        O  0.33113120  0.72579561  0.53928140    -0.74700
O217        O  0.37514098  0.68156164  0.53820034    -0.74600
O218        O  0.37544849  0.76972640  0.53647292    -0.74700
Ni219      Ni  0.37360632  0.72505317  0.46096529     1.25400
Ni220      Ni  0.37536906  0.72564020  0.53986803     1.25400
C221        C  0.37439193  0.78389135  0.49948562     0.87600
C222        C  0.37406860  0.66668692  0.50175185     0.87500
C223        C  0.31599843  0.72523181  0.50304762     0.87500
C224        C  0.43305933  0.72534646  0.49745656     0.87700
O225        O  0.76997581  0.37488786  0.03600499    -0.74600
O226        O  0.68183406  0.37345470  0.03504560    -0.74700
O227        O  0.72668059  0.33003173  0.03520512    -0.74700
O228        O  0.72503762  0.41833090  0.03580085    -0.74800
O229        O  0.72638692  0.41870099  0.96218196    -0.74700
O230        O  0.72661799  0.33036028  0.96150600    -0.74700
O231        O  0.68226207  0.37451059  0.96147295    -0.74600
O232        O  0.77050706  0.37477494  0.96228481    -0.74700
Ni233      Ni  0.72588658  0.37417236  0.03814702     1.25400
Ni234      Ni  0.72644725  0.37457288  0.95921257     1.25400
C235        C  0.78459868  0.37500238  0.99932921     0.87600
C236        C  0.66751561  0.37377757  0.99812487     0.87500
C237        C  0.72675392  0.31578379  0.99822894     0.87500
C238        C  0.72545156  0.43300739  0.99912508     0.87700
O239        O  0.72613980  0.32938696  0.46294204    -0.74600
O240        O  0.72641172  0.41759519  0.46139718    -0.74700
O241        O  0.77036872  0.37333796  0.46268094    -0.74700
O242        O  0.68208937  0.37357242  0.46180563    -0.74800
O243        O  0.68175158  0.37337986  0.53540720    -0.74700
O244        O  0.76989848  0.37479890  0.53635943    -0.74700
O245        O  0.72518200  0.41822835  0.53496639    -0.74600
O246        O  0.72640796  0.32991022  0.53664614    -0.74700
Ni247      Ni  0.72625366  0.37346691  0.45956575     1.25400
Ni248      Ni  0.72579029  0.37411958  0.53848567     1.25400
C249        C  0.72630261  0.31525346  0.49998427     0.87600
C250        C  0.72605929  0.43243852  0.49792295     0.87500
C251        C  0.78451610  0.37416256  0.49969187     0.87500
C252        C  0.66741459  0.37299362  0.49850690     0.87700
O253        O  0.72473419  0.76830439  0.03481960    -0.74600
O254        O  0.72627483  0.68006613  0.03794353    -0.74700
O255        O  0.76958719  0.72495644  0.03633055    -0.74700
O256        O  0.68122102  0.72349479  0.03630136    -0.74800
O257        O  0.68141260  0.72264626  0.96275102    -0.74700
O258        O  0.76959244  0.72325215  0.96266343    -0.74700
O259        O  0.72599036  0.67884631  0.96441340    -0.74600
O260        O  0.72522889  0.76699145  0.96113098    -0.74700
Ni261      Ni  0.72541753  0.72423320  0.03901323     1.25400
Ni262      Ni  0.72551938  0.72286602  0.96013168     1.25400
C263        C  0.72500443  0.78201968  0.99744705     0.87600
C264        C  0.72679405  0.66491667  0.00166790     0.87500
C265        C  0.78397643  0.72435089  0.99943985     0.87500
C266        C  0.66675603  0.72328691  0.99944008     0.87700
O267        O  0.76921057  0.72154112  0.46014643    -0.74600
O268        O  0.68109793  0.72460470  0.45619140    -0.74700
O269        O  0.72676132  0.76698152  0.45733944    -0.74700
O270        O  0.72356332  0.67875992  0.45887448    -0.74800
O271        O  0.72277725  0.67932505  0.53243880    -0.74700
O272        O  0.72448209  0.76760150  0.53096535    -0.74700
O273        O  0.67943814  0.72437578  0.52945316    -0.74600
O274        O  0.76765120  0.72277392  0.53380734    -0.74700
Ni275      Ni  0.72522543  0.72289094  0.45551479     1.25400
Ni276      Ni  0.72351202  0.72350745  0.53430644     1.25400
C277        C  0.78279649  0.72219420  0.49758405     0.87600
C278        C  0.66555921  0.72496109  0.49209806     0.87500
C279        C  0.72610888  0.78166429  0.49393055     0.87500
C280        C  0.72257504  0.66450396  0.49587295     0.87700
O281        O  0.26879570  0.40123216  0.00137277    -0.74600
O282        O  0.18076512  0.39712151  0.00623154    -0.74700
O283        O  0.22612758  0.40284797  0.06684458    -0.74700
O284        O  0.22314511  0.39551462  0.94098364    -0.74800
O285        O  0.22684605  0.34434297  0.94653746    -0.74700
O286        O  0.22749013  0.35153323  0.07275013    -0.74700
O287        O  0.18304086  0.34588728  0.01034413    -0.74600
O288        O  0.27130195  0.35004532  0.00884887    -0.74700
Ni289      Ni  0.22464840  0.40099294  0.00365666     1.25400
Ni290      Ni  0.22728145  0.34610242  0.00985193     1.25400
C291        C  0.28443480  0.37630236  0.00455468     0.87600
C292        C  0.16731091  0.37089007  0.00893306     0.87500
C293        C  0.22685336  0.37836595  0.09042450     0.87500
C294        C  0.22437329  0.36878634  0.92304381     0.87700
O295        O  0.27054807  0.40129287  0.50770382    -0.74600
O296        O  0.18239773  0.40037736  0.50874714    -0.74700
O297        O  0.22702482  0.39866945  0.57173580    -0.74700
O298        O  0.22637449  0.40265961  0.44519501    -0.74800
O299        O  0.22572166  0.35135531  0.44234667    -0.74700
O300        O  0.22838016  0.34735454  0.56835005    -0.74700
O301        O  0.18282713  0.34892617  0.50730257    -0.74600
O302        O  0.27103011  0.34987338  0.50319285    -0.74700
Ni303      Ni  0.22648706  0.40259787  0.50854649     1.25400
Ni304      Ni  0.22695369  0.34755402  0.50521953     1.25400
C305        C  0.28514632  0.37575259  0.50465824     0.87600
C306        C  0.16812618  0.37454784  0.50782956     0.87500
C307        C  0.22845987  0.37233726  0.59091162     0.87500
C308        C  0.22665558  0.37753629  0.42285908     0.87700
O309        O  0.83219323  0.34911228  0.00326221    -0.74600
O310        O  0.92018735  0.34814251  0.00654593    -0.74700
O311        O  0.87475400  0.35239190  0.06788970    -0.74700
O312        O  0.87734995  0.34524021  0.94175571    -0.74800
O313        O  0.87817777  0.39648592  0.93625610    -0.74700
O314        O  0.87528737  0.40364834  0.06220662    -0.74700
O315        O  0.92098382  0.39945156  0.00140391    -0.74600
O316        O  0.83271183  0.40045655  0.99720443    -0.74700
Ni317      Ni  0.87614789  0.34690204  0.00506515     1.25400
Ni318      Ni  0.87685869  0.40184913  0.99902465     1.25400
C319        C  0.81809507  0.37489477  0.99984840     0.87600
C320        C  0.93508557  0.37358023  0.00486911     0.87500
C321        C  0.87398122  0.37917769  0.08580537     0.87500
C322        C  0.87813316  0.36975835  0.91816372     0.87700
O323        O  0.83206310  0.34795940  0.49675303    -0.74600
O324        O  0.92014876  0.34598520  0.50121754    -0.74700
O325        O  0.87439050  0.34374629  0.56212041    -0.74700
O326        O  0.87768915  0.35060202  0.43579002    -0.74800
O327        O  0.87725297  0.40185494  0.44147028    -0.74700
O328        O  0.87676655  0.39498786  0.56741834    -0.74700
O329        O  0.92118664  0.39715024  0.50471069    -0.74600
O330        O  0.83284508  0.39919792  0.50425543    -0.74700
Ni331      Ni  0.87604420  0.34524198  0.49874418     1.25400
Ni332      Ni  0.87705771  0.40012327  0.50466480     1.25400
C333        C  0.81806878  0.37381533  0.50017180     0.87600
C334        C  0.93538414  0.37118584  0.50325884     0.87500
C335        C  0.87513611  0.36835964  0.58554715     0.87500
C336        C  0.87785060  0.37738933  0.41781437     0.87700
C337        C  0.89040704  0.34214380  0.79973649    -0.11600
C338        C  0.87468379  0.36509101  0.77617036     0.15000
C339        C  0.86008390  0.38924577  0.79941358     0.01900
C340        C  0.86210104  0.39033286  0.84543105    -0.15900
C341        C  0.87801039  0.36755341  0.86930312    -0.10700
C342        C  0.89256910  0.34328817  0.84587121     0.08600
C343        C  0.87592830  0.36475023  0.72735470     0.09600
S344        S  0.83895571  0.41966733  0.77225430    -0.25100
H345        H  0.85066078  0.40896069  0.86281005     0.19900
S346        S  0.91596481  0.31434930  0.87235033    -0.30800
H347        H  0.90207895  0.32386955  0.78191023     0.10200
C348        C  0.89604659  0.38447760  0.70425520     0.03400
C349        C  0.89513500  0.38521365  0.65803537    -0.13100
C350        C  0.87472947  0.36636393  0.63426922    -0.08700
C351        C  0.85474375  0.34637571  0.65759378     0.06800
C352        C  0.85585774  0.34549058  0.70381100    -0.13800
S353        S  0.92312225  0.40847877  0.73374505    -0.30800
H354        H  0.91059740  0.40034492  0.64021585     0.11100
S355        S  0.82607536  0.32295124  0.63061469    -0.27900
H356        H  0.84019479  0.33052373  0.72163915     0.08300
H357        H  0.92947201  0.33494225  0.90253682     0.26800
H358        H  0.93700498  0.42189701  0.69645262     0.21600
H359        H  0.81868151  0.34494831  0.59818568     0.26900
H360        H  0.82928651  0.40210186  0.73585944     0.15700
C361        C  0.85565684  0.36305049  0.20637525    -0.11600
C362        C  0.87310830  0.38585451  0.22750378     0.15000
C363        C  0.88952961  0.40750424  0.20179151     0.01900
C364        C  0.88841822  0.40553217  0.15566178    -0.15900
C365        C  0.87184938  0.38196820  0.13443804    -0.10700
C366        C  0.85448759  0.36111380  0.16035463     0.08600
C367        C  0.87479397  0.38514548  0.27626339     0.09600
S368        S  0.91288242  0.43765109  0.22555576    -0.25100
H369        H  0.90159547  0.42185699  0.13622026     0.19900
S370        S  0.82948475  0.33226112  0.13692878    -0.30800
H371        H  0.84271072  0.34664972  0.22601833     0.10200
C372        C  0.85828364  0.40602100  0.30299897     0.03400
C373        C  0.86015315  0.40341042  0.34915518    -0.13100
C374        C  0.87817102  0.38028183  0.36906892    -0.08700
C375        C  0.89531758  0.36005321  0.34187779     0.06800
C376        C  0.89305220  0.36237899  0.29602281    -0.13800
S377        S  0.83407491  0.43521243  0.27839496    -0.30800
H378        H  0.84692274  0.41892493  0.36981892     0.11100
S379        S  0.92186850  0.33200989  0.36354139    -0.27900
H380        H  0.90610144  0.34662595  0.27543272     0.08300
H381        H  0.81930826  0.35091262  0.10185149     0.26800
H382        H  0.82582520  0.45007793  0.31795638     0.21600
H383        H  0.93323827  0.35210378  0.39613238     0.26900
H384        H  0.92051982  0.42209860  0.26469720     0.15700
C385        C  0.08485139  0.39255491  0.47981818    -0.11600
C386        C  0.06916668  0.37393391  0.51032704     0.15000
C387        C  0.08632673  0.35516305  0.53950255     0.01900
C388        C  0.11854950  0.35516425  0.53714589    -0.15900
C389        C  0.13417869  0.37425985  0.50723848    -0.10700
C390        C  0.11705504  0.39299403  0.47803647     0.08600
C391        C  0.03499443  0.37336811  0.50920638     0.09600
S392        S  0.06857538  0.33135581  0.58117963    -0.25100
H393        H  0.13156954  0.34085277  0.55977141     0.19900
S394        S  0.13484743  0.41686905  0.43648573    -0.30800
H395        H  0.07184839  0.40647337  0.45668116     0.10200
C396        C  0.01734062  0.39999900  0.51763729     0.03400
C397        C  0.98511702  0.39846374  0.51505399    -0.13100
C398        C  0.96978271  0.37078765  0.50448957    -0.08700
C399        C  0.98786737  0.34398528  0.49643380     0.06800
C400        C  0.02002471  0.34572886  0.49871538    -0.13800
S401        S  0.03570126  0.43573005  0.53349198    -0.30800
H402        H  0.97181456  0.41901183  0.52203001     0.11100
S403        S  0.97209908  0.30667722  0.48328670    -0.27900
H404        H  0.03363359  0.32527942  0.49194540     0.08300
H405        H  0.15874821  0.39601770  0.42668010     0.26800
H406        H  0.00879347  0.45379846  0.53564124     0.21600
H407        H  0.95426171  0.31776721  0.44816283     0.26900
H408        H  0.04309526  0.35076871  0.58856658     0.15700
C409        C  0.20499606  0.38352844  0.80283860    -0.11600
C410        C  0.22689217  0.36498504  0.78150009     0.15000
C411        C  0.24684604  0.34630621  0.80693570     0.01900
C412        C  0.24463923  0.34697679  0.85306374    -0.15900
C413        C  0.22333688  0.36628109  0.87446282    -0.10700
C414        C  0.20271791  0.38407750  0.84884973     0.08600
C415        C  0.22811735  0.36588849  0.73274699     0.09600
S416        S  0.27582477  0.32147299  0.78295364    -0.25100
H417        H  0.26046781  0.33315460  0.87245559     0.19900
S418        S  0.17225883  0.40698474  0.87279119    -0.30800
H419        H  0.18927915  0.39743836  0.78337014     0.10200
C420        C  0.21483386  0.34251123  0.70677787     0.03400
C421        C  0.21570610  0.34500194  0.66062508    -0.13100
C422        C  0.22970720  0.37039730  0.63977777    -0.08700
C423        C  0.24396017  0.39324378  0.66619996     0.06800
C424        C  0.24243285  0.39103832  0.71222108    -0.13800
S425        S  0.19602859  0.30998321  0.73245943    -0.30800
H426        H  0.20482718  0.32739827  0.64069646     0.11100
S427        S  0.26581472  0.42486322  0.64358849    -0.27900
H428        H  0.25305346  0.40875455  0.73229114     0.08300
H429        H  0.16636813  0.38662674  0.90792707     0.26800
H430        H  0.18927782  0.29392283  0.69331971     0.21600
H431        H  0.27960257  0.40716306  0.60998856     0.26900
H432        H  0.27912840  0.33707544  0.74265116     0.12500
C433        C  0.24097778  0.35671497  0.30230936    -0.11600
C434        C  0.22972044  0.38296699  0.28069350     0.15000
C435        C  0.21786611  0.40762480  0.30607877     0.01900
C436        C  0.21681566  0.40510992  0.35214246    -0.15900
C437        C  0.22828032  0.37887050  0.37393649    -0.10700
C438        C  0.24126780  0.35476150  0.34833176     0.08600
C439        C  0.22955499  0.38324744  0.23171477     0.09600
S440        S  0.20422549  0.44306430  0.28179087    -0.25100
H441        H  0.20710424  0.42396676  0.37110887     0.19900
S442        S  0.26020303  0.32165417  0.37191608    -0.30800
H443        H  0.25021193  0.33775084  0.28306367     0.10200
C444        C  0.25709800  0.38141914  0.20692358     0.03400
C445        C  0.25556386  0.38012778  0.16067950    -0.13100
C446        C  0.22712984  0.38110043  0.13878053    -0.08700
C447        C  0.19967245  0.38369093  0.16356017     0.06800
C448        C  0.20116018  0.38423500  0.20965086    -0.13800
S449        S  0.29420675  0.38143366  0.23399328    -0.30800
H450        H  0.27652542  0.37836400  0.14140125     0.11100
S451        S  0.16198881  0.38550319  0.13864457    -0.27900
H452        H  0.17997626  0.38542759  0.22855957     0.08300
H453        H  0.27667350  0.33895079  0.40334836     0.26800
H454        H  0.31225875  0.37872168  0.19560569     0.21600
H455        H  0.17106134  0.40123215  0.10032820     0.26900
H456        H  0.22458373  0.44270887  0.24565612     0.15700
C457        C  0.08360467  0.34630117  0.02598369    -0.11600
C458        C  0.06806638  0.37007330  0.00388790     0.15000
C459        C  0.08518783  0.39395146  0.98403931     0.01900
C460        C  0.11730857  0.39375915  0.98714275    -0.15900
C461        C  0.13313091  0.36992435  0.00902443    -0.10700
C462        C  0.11581145  0.34598707  0.02907176     0.08600
C463        C  0.03398252  0.37037507  0.00432028     0.09600
S464        S  0.06746329  0.42515066  0.95388785    -0.25100
H465        H  0.13009353  0.41217091  0.97131940     0.19900
S466        S  0.13280083  0.31505592  0.06056483    -0.30800
H467        H  0.07040897  0.32818216  0.04188417     0.10200
C468        C  0.01669262  0.34857110  0.98039927     0.03400
C469        C  0.98441318  0.34990737  0.98174273    -0.13100
C470        C  0.96907360  0.37275046  0.00626620    -0.08700
C471        C  0.98654222  0.39423516  0.03082078     0.06800
C472        C  0.01873598  0.39295631  0.02928258    -0.13800
S473        S  0.03569542  0.31983941  0.94680465    -0.30800
H474        H  0.97103450  0.33348546  0.96292277     0.11100
S475        S  0.96927889  0.42285281  0.06627387    -0.27900
H476        H  0.03207040  0.40943308  0.04814503     0.08300
H477        H  0.15577263  0.33319719  0.08024376     0.26800
H478        H  0.00881430  0.30545056  0.93105308     0.21600
H479        H  0.94518089  0.40371177  0.08089857     0.26900
H480        H  0.04193292  0.40824313  0.93875970     0.15700
C481        C  0.74213805  0.51595792  0.46747339    -0.11600
C482        C  0.72325569  0.53142955  0.49780396     0.15000
C483        C  0.70542486  0.51428875  0.52804969     0.01900
C484        C  0.70738499  0.48210472  0.52794696    -0.15900
C485        C  0.72620809  0.46648105  0.49755342    -0.10700
C486        C  0.74405792  0.48374641  0.46726049     0.08600
C487        C  0.72331682  0.56546451  0.49781087     0.09600
S488        S  0.67978191  0.53201141  0.56755199    -0.25100
H489        H  0.69350076  0.46911186  0.55112959     0.19900
S490        S  0.77088974  0.46631089  0.42917701    -0.30800
H491        H  0.75604064  0.52913596  0.44453270     0.10200
C492        C  0.74058546  0.58236536  0.52881937     0.03400
C493        C  0.73960594  0.61470095  0.52789273    -0.13100
C494        C  0.72165321  0.63042738  0.49655788    -0.08700
C495        C  0.70391432  0.61322842  0.46613154     0.06800
C496        C  0.70538800  0.58103173  0.46655877    -0.13800
S497        S  0.76432880  0.56271548  0.56888382    -0.30800
H498        H  0.75329043  0.62781343  0.55111382     0.11100
S499        S  0.67744181  0.63086685  0.42801991    -0.27900
H500        H  0.69172620  0.56793258  0.44320857     0.08300
H501        H  0.78094278  0.44335188  0.45865655     0.26800
H502        H  0.77437208  0.58924617  0.59136936     0.21600
H503        H  0.66713302  0.65304780  0.45856492     0.26900
H504        H  0.67283369  0.55834314  0.54245643     0.15700
C505        C  0.70658118  0.51621801  0.02687916    -0.11600
C506        C  0.72845468  0.53183883  0.00124323     0.15000
C507        C  0.74901607  0.51487977  0.97443700     0.01900
C508        C  0.74698052  0.48268289  0.97347468    -0.15900
C509        C  0.72524646  0.46697966  0.99940113    -0.10700
C510        C  0.70454023  0.48404020  0.02589765     0.08600
C511        C  0.72793311  0.56585689  0.00118849     0.09600
S512        S  0.77803019  0.53288856  0.94040232    -0.25100
H513        H  0.76294779  0.46973693  0.95310457     0.19900
S514        S  0.67397967  0.46625932  0.05720008    -0.30800
H515        H  0.69044012  0.52926000  0.04681275     0.10200
C516        C  0.71205311  0.58232647  0.96829005     0.03400
C517        C  0.71220371  0.61462389  0.96920896    -0.13100
C518        C  0.72799776  0.63083988  0.00235790    -0.08700
C519        C  0.74429241  0.61408839  0.03499981     0.06800
C520        C  0.74356222  0.58183146  0.03450511    -0.13800
S521        S  0.69131960  0.56213497  0.92546285    -0.30800
H522        H  0.69967805  0.62733420  0.94421986     0.11100
S523        S  0.76788792  0.63224448  0.07648423    -0.27900
H524        H  0.75602948  0.56902529  0.05950466     0.08300
H525        H  0.66796297  0.44285160  0.02623964     0.26800
H526        H  0.67960786  0.58842276  0.90404271     0.21600
H527        H  0.77997463  0.65475517  0.04785483     0.26900
H528        H  0.78240845  0.55912181  0.96684392     0.15700
C529        C  0.58126324  0.72579757  0.45402054    -0.11600
C530        C  0.56593981  0.73061346  0.49412329     0.15000
C531        C  0.58336837  0.73399182  0.53305841     0.01900
C532        C  0.61549278  0.73151238  0.53125217    -0.15900
C533        C  0.63117699  0.72647312  0.49112775    -0.10700
C534        C  0.61342698  0.72385725  0.45187820     0.08600
C535        C  0.53178350  0.72978045  0.49465673     0.09600
S536        S  0.56603396  0.74204376  0.58596823    -0.25100
H537        H  0.62830869  0.73412046  0.56168334     0.19900
S538        S  0.62964786  0.71781559  0.39783065    -0.30800
H539        H  0.56791940  0.72292710  0.42408302     0.10200
C540        C  0.51392250  0.75164689  0.47149738     0.03400
C541        C  0.48166523  0.74918813  0.47197057    -0.13100
C542        C  0.46696142  0.72563146  0.49570491    -0.08700
C543        C  0.48489468  0.70362369  0.51844716     0.06800
C544        C  0.51702249  0.70595521  0.51776107    -0.13800
S545        S  0.53205993  0.78351907  0.44321434    -0.30800
H546        H  0.46775493  0.76614920  0.45487505     0.11100
S547        S  0.46815884  0.67145724  0.54749173    -0.27900
H548        H  0.53070105  0.68880835  0.53490535     0.08300
H549        H  0.64597504  0.69132520  0.41050461     0.26800
H550        H  0.50494666  0.79637697  0.42560730     0.21600
H551        H  0.44393557  0.66704127  0.51736004     0.26900
H552        H  0.54082933  0.75880821  0.56931733     0.15700
C553        C  0.58319371  0.73797511  0.96765426    -0.11600
C554        C  0.56760613  0.72130593  0.00034549     0.15000
C555        C  0.58470191  0.70512186  0.03253828     0.01900
C556        C  0.61693332  0.70668431  0.03195154    -0.15900
C557        C  0.63264783  0.72353134  0.99935755    -0.10700
C558        C  0.61537946  0.73964091  0.96712239     0.08600
C559        C  0.53355367  0.72254930  0.00092592     0.09600
S560        S  0.56687922  0.68208567  0.07509345    -0.25100
H561        H  0.62988282  0.69408832  0.05667129     0.19900
S562        S  0.63274659  0.76432214  0.92620881    -0.30800
H563        H  0.57008531  0.75069274  0.94321583     0.10200
C564        C  0.51748409  0.73998962  0.03274663     0.03400
C565        C  0.48519170  0.74078591  0.03171613    -0.13100
C566        C  0.46860140  0.72468851  0.99930313    -0.08700
C567        C  0.48487310  0.70688193  0.96778489     0.06800
C568        C  0.51711300  0.70646317  0.96850762    -0.13800
S569        S  0.53811191  0.76196651  0.07385289    -0.30800
H570        H  0.47278582  0.75442025  0.05583556     0.11100
S571        S  0.46600188  0.68284408  0.92748896    -0.27900
H572        H  0.52952762  0.69288102  0.94424606     0.08300
H573        H  0.65512284  0.77652251  0.95490080     0.26800
H574        H  0.51210234  0.77492569  0.09453251     0.21600
H575        H  0.44293527  0.67245079  0.95657172     0.26900
H576        H  0.53978544  0.67509031  0.05178658     0.15700
C577        C  0.51925114  0.39070685  0.53094981    -0.11600
C578        C  0.53454856  0.37397936  0.49801857     0.15000
C579        C  0.51728678  0.35840342  0.46549216     0.01900
C580        C  0.48512885  0.36045125  0.46604242    -0.15900
C581        C  0.46966629  0.37702310  0.49915351    -0.10700
C582        C  0.48709269  0.39270707  0.53163828     0.08600
C583        C  0.56854681  0.37400361  0.49774504     0.09600
S584        S  0.53488044  0.33529911  0.42281588    -0.25100
H585        H  0.47204120  0.34818778  0.44115880     0.19900
S586        S  0.46995625  0.41689721  0.57342999    -0.30800
H587        H  0.53254363  0.40293139  0.55566234     0.10200
C588        C  0.58531448  0.39190160  0.46729787     0.03400
C589        C  0.61761272  0.39071693  0.46769436    -0.13100
C590        C  0.63341652  0.37216364  0.49820315    -0.08700
C591        C  0.61638587  0.35399812  0.52836494     0.06800
C592        C  0.58420432  0.35551245  0.52825196    -0.13800
S593        S  0.56555286  0.41688772  0.42889107    -0.30800
H594        H  0.63064827  0.40477713  0.44482022     0.11100
S595        S  0.63415927  0.32724656  0.56614926    -0.27900
H596        H  0.57118855  0.34153139  0.55132374     0.08300
H597        H  0.44728714  0.42934562  0.54540181     0.26800
H598        H  0.59200750  0.42776323  0.40701815     0.21600
H599        H  0.65727730  0.31770330  0.53653507     0.26900
H600        H  0.56073695  0.32612078  0.44746104     0.15700
C601        C  0.35727613  0.58280653  0.47459210    -0.11600
C602        C  0.37657945  0.56772201  0.50470972     0.15000
C603        C  0.39455088  0.58523265  0.53429131     0.01900
C604        C  0.39250982  0.61740830  0.53349923    -0.15900
C605        C  0.37361473  0.63264950  0.50283701    -0.10700
C606        C  0.35532527  0.61500162  0.47364600     0.08600
C607        C  0.37696899  0.53369522  0.50499727     0.09600
S608        S  0.42062765  0.56794261  0.57350737    -0.25100
H609        H  0.40646172  0.63067313  0.55626090     0.19900
S610        S  0.32783249  0.63200250  0.43625926    -0.30800
H611        H  0.34313149  0.56933479  0.45230243     0.10200
C612        C  0.36069418  0.51669325  0.53700461     0.03400
C613        C  0.36188688  0.48438680  0.53601423    -0.13100
C614        C  0.37900513  0.46877526  0.50357893    -0.08700
C615        C  0.39590517  0.48605735  0.47219960     0.06800
C616        C  0.39422215  0.51824484  0.47278315    -0.13800
S617        S  0.33771825  0.53613570  0.57824853    -0.30800
H618        H  0.34886916  0.47120047  0.55996498     0.11100
S619        S  0.42128021  0.46864326  0.43213236    -0.27900
H620        H  0.40710835  0.53144012  0.44863058     0.08300
H621        H  0.31847819  0.65542140  0.46551347     0.26800
H622        H  0.32915561  0.50959524  0.60195286     0.21600
H623        H  0.43208683  0.44545105  0.46068649     0.26900
H624        H  0.42821237  0.54203947  0.54781295     0.15700
C625        C  0.58346503  0.36023266  0.02803027    -0.11600
C626        C  0.56860668  0.37943210  0.99751405     0.15000
C627        C  0.58640303  0.39651674  0.96708483     0.01900
C628        C  0.61850873  0.39337500  0.96712800    -0.15900
C629        C  0.63346472  0.37419951  0.99771580    -0.10700
C630        C  0.61557294  0.35718003  0.02821217     0.08600
C631        C  0.53451399  0.38024479  0.99757365     0.09600
S632        S  0.56972267  0.42301980  0.92787110    -0.25100
H633        H  0.63199470  0.40678299  0.94395804     0.19900
S634        S  0.63202997  0.33005051  0.06666322    -0.30800
H635        H  0.56985017  0.34691667  0.05114336     0.10200
C636        C  0.51720745  0.36575193  0.96420054     0.03400
C637        C  0.48490403  0.36684626  0.96593633    -0.13100
C638        C  0.46944727  0.38191751  0.00060941    -0.08700
C639        C  0.48706339  0.39667873  0.03380632     0.06800
C640        C  0.51927367  0.39528742  0.03219810    -0.13800
S641        S  0.53625711  0.34481881  0.92039528    -0.30800
H642        H  0.47159872  0.35526099  0.94068826     0.11100
S643        S  0.47011480  0.41879137  0.07799157    -0.27900
H644        H  0.53265482  0.40655290  0.05774138     0.08300
H645        H  0.65503433  0.31939400  0.03764197     0.26800
H646        H  0.50947488  0.33665422  0.89704106     0.21600
H647        H  0.44748414  0.43262824  0.05124425     0.26900
H648        H  0.54326795  0.43021989  0.95261499     0.15700
C649        C  0.39165795  0.58680580  0.03406638    -0.11600
C650        C  0.37608287  0.57088309  0.00068294     0.15000
C651        C  0.36140432  0.58756534  0.96664780     0.01900
C652        C  0.36250910  0.61979903  0.96694927    -0.15900
C653        C  0.37765373  0.63590289  0.00079289    -0.10700
C654        C  0.39311701  0.61900358  0.03409141     0.08600
C655        C  0.37642639  0.53686824  0.00162749     0.09600
S656        S  0.34093371  0.56922281  0.92196471    -0.25100
H657        H  0.35077118  0.63241910  0.94103600     0.19900
S658        S  0.41665788  0.63684802  0.07590527    -0.30800
H659        H  0.40350673  0.57395712  0.05965779     0.10200
C660        C  0.39623727  0.51980080  0.97406642     0.03400
C661        C  0.39493864  0.48751729  0.97484686    -0.13100
C662        C  0.37473199  0.47199127  0.00343612    -0.08700
C663        C  0.35523859  0.48925712  0.03156595     0.06800
C664        C  0.35648686  0.52148350  0.03058130    -0.13800
S665        S  0.42367310  0.53915882  0.93880651    -0.30800
H666        H  0.41009122  0.47425824  0.95369115     0.11100
S667        S  0.32739356  0.47170587  0.06792652    -0.27900
H668        H  0.34131045  0.53472089  0.05179980     0.08300
H669        H  0.42949809  0.65893339  0.04725588     0.26800
H670        H  0.43879803  0.51245759  0.92366964     0.21600
H671        H  0.31952844  0.44765476  0.03890600     0.26900
H672        H  0.33247341  0.54239888  0.94493469     0.15700
C673        C  0.70256322  0.85783678  0.78932700    -0.11600
C674        C  0.72607180  0.87397630  0.76754159     0.15000
C675        C  0.74884747  0.88926596  0.79250462     0.01900
C676        C  0.74787427  0.88768582  0.83855225    -0.15900
C677        C  0.72435123  0.87157224  0.86061153    -0.10700
C678        C  0.70166876  0.85609387  0.83544270     0.08600
C679        C  0.72657512  0.87373680  0.71878786     0.09600
S680        S  0.77978649  0.91109911  0.76780169    -0.25100
H681        H  0.76535819  0.89969906  0.85732545     0.19900
S682        S  0.67213055  0.83230799  0.85977012    -0.30800
H683        H  0.68527651  0.84578950  0.77016877     0.10200
C684        C  0.74732294  0.85497685  0.69504776     0.03400
C685        C  0.74705775  0.85573890  0.64874820    -0.13100
C686        C  0.72612024  0.87454687  0.62575925    -0.08700
C687        C  0.70548471  0.89336923  0.64986838     0.06800
C688        C  0.70591616  0.89275844  0.69598174    -0.13800
S689        S  0.77369307  0.82971426  0.72375852    -0.30800
H690        H  0.76286779  0.84129223  0.63032884     0.11100
S691        S  0.67982176  0.92029159  0.62354748    -0.27900
H692        H  0.69024167  0.90745818  0.71429883     0.08300
H693        H  0.69144408  0.81964572  0.89238283     0.26800
H694        H  0.78760697  0.81687174  0.68604431     0.21600
H695        H  0.66037997  0.89680782  0.60775035     0.26900
H696        H  0.76415592  0.91928110  0.72895493     0.15700
C697        C  0.70774204  0.89087029  0.28962029    -0.11600
C698        C  0.72982717  0.87315890  0.26733087     0.15000
C699        C  0.75211997  0.85665822  0.29168221     0.01900
C700        C  0.75159387  0.85805677  0.33782436    -0.15900
C701        C  0.72901133  0.87522914  0.36031917    -0.10700
C702        C  0.70728878  0.89241960  0.33565299     0.08600
C703        C  0.72922757  0.87320746  0.21865813     0.09600
S704        S  0.78160528  0.83329506  0.26609257    -0.25100
H705        H  0.76848782  0.84492459  0.35635010     0.19900
S706        S  0.67940119  0.91794736  0.36054026    -0.30800
H707        H  0.69100307  0.90404369  0.27084816     0.10200
C708        C  0.70790978  0.85503902  0.19524527     0.03400
C709        C  0.70684155  0.85698460  0.14910773    -0.13100
C710        C  0.72685426  0.87660685  0.12593302    -0.08700
C711        C  0.74801695  0.89504247  0.14970316     0.06800
C712        C  0.74914633  0.89292261  0.19572841    -0.13800
S713        S  0.68273102  0.82875785  0.22420095    -0.30800
H714        H  0.69085604  0.84266000  0.13089513     0.11100
S715        S  0.77311934  0.92270549  0.12356645    -0.27900
H716        H  0.76517659  0.90724232  0.21393118     0.08300
H717        H  0.69923005  0.92853239  0.39394442     0.26800
H718        H  0.66767646  0.81699048  0.18673108     0.21600
H719        H  0.75182904  0.93149437  0.09088861     0.26900
H720        H  0.76534652  0.82640340  0.22727471     0.15700
C721        C  0.70389655  0.08127202  0.47253415    -0.11600
C722        C  0.72731557  0.06526134  0.49462947     0.15000
C723        C  0.75121723  0.08190805  0.51531350     0.01900
C724        C  0.75088691  0.11417004  0.51404189    -0.15900
C725        C  0.72705999  0.13035127  0.49277349    -0.10700
C726        C  0.70374639  0.11349128  0.47076401     0.08600
C727        C  0.72687796  0.03120303  0.49371931     0.09600
S728        S  0.78260900  0.06341853  0.54408563    -0.25100
H729        H  0.76902561  0.12673328  0.53076235     0.19900
S730        S  0.67429773  0.13144239  0.43757328    -0.30800
H731        H  0.68600232  0.06848642  0.45561197     0.10200
C732        C  0.70530771  0.01429237  0.51864816     0.03400
C733        C  0.70593546  0.98199940  0.51713403    -0.13100
C734        C  0.72751392  0.96629111  0.49083362    -0.08700
C735        C  0.74826971  0.98340416  0.46449524     0.06800
C736        C  0.74804254  0.01561540  0.46676972    -0.13800
S737        S  0.67767285  0.03377978  0.55351334    -0.30800
H738        H  0.68996274  0.96889355  0.53718993     0.11100
S739        S  0.77442670  0.96571368  0.42572213    -0.27900
H740        H  0.76409259  0.02870418  0.44677556     0.08300
H741        H  0.69407781  0.15384582  0.41946367     0.26800
H742        H  0.66030408  0.00749696  0.56454698     0.21600
H743        H  0.75419506  0.94196364  0.41318522     0.26900
H744        H  0.76623098  0.03700395  0.55717262     0.15700
C745        C  0.74813374  0.20711799  0.79505627    -0.11600
C746        C  0.72668798  0.22533391  0.77237051     0.15000
C747        C  0.70429675  0.24202804  0.79628556     0.01900
C748        C  0.70384144  0.24017353  0.84234570    -0.15900
C749        C  0.72559950  0.22232458  0.86524980    -0.10700
C750        C  0.74763131  0.20512040  0.84107221     0.08600
C751        C  0.72700571  0.22470117  0.72369179     0.09600
S752        S  0.67594079  0.26625940  0.76997710    -0.25100
H753        H  0.68685662  0.25344176  0.86048965     0.19900
S754        S  0.77450030  0.17883908  0.86655349    -0.30800
H755        H  0.76486302  0.19370231  0.77662656     0.10200
C756        C  0.74981677  0.24027678  0.69929702     0.03400
C757        C  0.74956209  0.23839776  0.65311123    -0.13100
C758        C  0.72702342  0.22108260  0.63086721    -0.08700
C759        C  0.70465397  0.20486947  0.65573565     0.06800
C760        C  0.70465435  0.20722925  0.70172044    -0.13800
S761        S  0.77853657  0.26339853  0.72694720    -0.30800
H762        H  0.76655956  0.25103182  0.63419974     0.11100
S763        S  0.67652041  0.17956152  0.63118413    -0.27900
H764        H  0.68751144  0.19476919  0.72068384     0.08300
H765        H  0.75358730  0.16817009  0.89861878     0.26800
H766        H  0.79623643  0.27015573  0.68928032     0.21600
H767        H  0.69665312  0.16787111  0.59878453     0.26900
H768        H  0.69439100  0.27466707  0.73377821     0.15700
C769        C  0.74859349  0.23712261  0.20123254    -0.11600
C770        C  0.72484079  0.22189462  0.22373013     0.15000
C771        C  0.70071885  0.20818218  0.19945375     0.01900
C772        C  0.70091240  0.20998845  0.15335326    -0.15900
C773        C  0.72499452  0.22474625  0.13063625    -0.10700
C774        C  0.74885924  0.23892964  0.15520280     0.08600
C775        C  0.72520644  0.22216678  0.27253401     0.09600
S776        S  0.66944305  0.18755845  0.22526418    -0.25100
H777        H  0.68250033  0.19897164  0.13502635     0.19900
S778        S  0.77945897  0.26101861  0.13028760    -0.30800
H779        H  0.76679060  0.24827951  0.21985568     0.10200
C780        C  0.74784054  0.20598890  0.29653638     0.03400
C781        C  0.74802332  0.20784315  0.34272667    -0.13100
C782        C  0.72592761  0.22544851  0.36547624    -0.08700
C783        C  0.70358435  0.24206702  0.34112201     0.06800
C784        C  0.70329019  0.23997141  0.29507602    -0.13800
S785        S  0.77572844  0.18202154  0.26841307    -0.30800
H786        H  0.76498743  0.19492858  0.36129186     0.11100
S787        S  0.67584129  0.26753082  0.36645946    -0.27900
H788        H  0.68626601  0.25287241  0.27653511     0.08300
H789        H  0.76034270  0.27530963  0.09883701     0.26800
H790        H  0.79197030  0.17253070  0.30619640     0.21600
H791        H  0.69622461  0.27871150  0.39881037     0.26900
H792        H  0.68652213  0.17682610  0.26155995     0.15700
C793        C  0.69985943  0.08228877  0.97110769    -0.11600
C794        C  0.72210917  0.06577905  0.99491061     0.15000
C795        C  0.74481348  0.08196141  0.01881892     0.01900
C796        C  0.74509552  0.11419881  0.01790060    -0.15900
C797        C  0.72266396  0.13086477  0.99450423    -0.10700
C798        C  0.69995606  0.11454776  0.97041178     0.08600
C799        C  0.72194438  0.03172379  0.99264114     0.09600
S800        S  0.77363450  0.06279817  0.05180753    -0.25100
H801        H  0.76251399  0.12638079  0.03663431     0.19900
S802        S  0.67153571  0.13327332  0.93625509    -0.30800
H803        H  0.68269325  0.06988990  0.95215661     0.10200
C804        C  0.69859220  0.01427651  0.01305007     0.03400
C805        C  0.69979997  0.98202137  0.01094735    -0.13100
C806        C  0.72391760  0.96675318  0.98887060    -0.08700
C807        C  0.74682514  0.98447682  0.96732582     0.06800
C808        C  0.74572882  0.01666625  0.96985884    -0.13800
S809        S  0.66809692  0.03302064  0.04363266    -0.30800
H810        H  0.68228566  0.96860130  0.02763047     0.11100
S811        S  0.77728570  0.96770704  0.93465688    -0.27900
H812        H  0.76340065  0.03017217  0.95356257     0.08300
H813        H  0.69195648  0.15567827  0.91972783     0.26800
H814        H  0.65156689  0.00615956  0.05440662     0.21600
H815        H  0.75842501  0.94495311  0.91555512     0.26900
H816        H  0.75514588  0.03752468  0.06379860     0.15700
C817        C  0.24161853  0.70742689  0.79985353    -0.11600
C818        C  0.22287887  0.72852322  0.77735604     0.15000
C819        C  0.20567037  0.75042232  0.80158068     0.01900
C820        C  0.20788111  0.75094705  0.84763120    -0.15900
C821        C  0.22626771  0.72953154  0.87032125    -0.10700
C822        C  0.24379757  0.70789843  0.84589309     0.08600
C823        C  0.22280545  0.72783348  0.72859499     0.09600
S824        S  0.18032057  0.77809369  0.77584270    -0.25100
H825        H  0.19441063  0.76767155  0.86596041     0.19900
S826        S  0.27060134  0.68144221  0.87114857    -0.30800
H827        H  0.25525844  0.69095227  0.78126291     0.10200
C828        C  0.23874313  0.75015094  0.70377197     0.03400
C829        C  0.23782879  0.74883399  0.65761060    -0.13100
C830        C  0.22149314  0.72547627  0.63560193    -0.08700
C831        C  0.20535242  0.70320345  0.66076145     0.06800
C832        C  0.20658712  0.70438380  0.70688587    -0.13800
S833        S  0.26090974  0.77982633  0.73090462    -0.30800
H834        H  0.25034873  0.76580766  0.63850840     0.11100
S835        S  0.18151694  0.67376178  0.63634227    -0.27900
H836        H  0.19416877  0.68734674  0.72608959     0.08300
H837        H  0.28048018  0.70218136  0.90390940     0.26800
H838        H  0.27229676  0.79387535  0.69237846     0.21600
H839        H  0.16945893  0.69305786  0.60325007     0.26900
H840        H  0.17305644  0.76016145  0.73866669     0.15700
C841        C  0.24256340  0.70716429  0.20557900    -0.11600
C842        C  0.22305276  0.72740336  0.22841573     0.15000
C843        C  0.20544576  0.74917967  0.20465762     0.01900
C844        C  0.20752909  0.75001641  0.15859952    -0.15900
C845        C  0.22658265  0.72932451  0.13561234    -0.10700
C846        C  0.24482981  0.70813473  0.15961476     0.08600
C847        C  0.22334786  0.72660924  0.27711082     0.09600
S848        S  0.17978666  0.77627355  0.23107476    -0.25100
H849        H  0.19352171  0.76640396  0.14049023     0.19900
S850        S  0.27274832  0.68304381  0.13389625    -0.30800
H851        H  0.25675771  0.69103182  0.22387653     0.10200
C852        C  0.20960398  0.70230191  0.30081284     0.03400
C853        C  0.21107010  0.70228757  0.34704681    -0.13100
C854        C  0.22622687  0.72600676  0.37004940    -0.08700
C855        C  0.24082469  0.74980574  0.34579650     0.06800
C856        C  0.23874009  0.75009668  0.29980651    -0.13800
S857        S  0.18956499  0.67177606  0.27217564    -0.30800
H858        H  0.19992402  0.68399254  0.36538829     0.11100
S859        S  0.26400462  0.77943830  0.37103321    -0.27900
H860        H  0.24991754  0.76837536  0.28138079     0.08300
H861        H  0.28164231  0.70436405  0.10130620     0.26800
H862        H  0.17894872  0.65620860  0.30995190     0.21600
H863        H  0.27769316  0.75954557  0.40206596     0.26900
H864        H  0.17269563  0.75774655  0.26774558     0.15700
C865        C  0.08212892  0.74869469  0.47907541    -0.11600
C866        C  0.06626971  0.72541461  0.50167837     0.15000
C867        C  0.08305886  0.70186912  0.52306667     0.01900
C868        C  0.11528066  0.70218578  0.52138418    -0.15900
C869        C  0.13127764  0.72571009  0.49921529    -0.10700
C870        C  0.11430933  0.74897563  0.47721180     0.08600
C871        C  0.03223781  0.72561935  0.50037064     0.09600
S872        S  0.06487665  0.67097859  0.55330787    -0.25100
H873        H  0.12797675  0.68423358  0.53840858     0.19900
S874        S  0.13204335  0.77863438  0.44414346    -0.30800
H875        H  0.06923139  0.76641679  0.46183861     0.10200
C876        C  0.01501916  0.74809039  0.52322916     0.03400
C877        C  0.98275941  0.74757208  0.52074385    -0.13100
C878        C  0.96738725  0.72515587  0.49559268    -0.08700
C879        C  0.98486439  0.70336934  0.47140470     0.06800
C880        C  0.01701238  0.70355785  0.47461479    -0.13800
S881        S  0.03409805  0.77678021  0.55669536    -0.30800
H882        H  0.96940008  0.76427081  0.53923748     0.11100
S883        S  0.96773927  0.67590932  0.43407988    -0.27900
H884        H  0.03036698  0.68677972  0.45613733     0.08300
H885        H  0.15438806  0.75896711  0.42554571     0.26800
H886        H  0.00738559  0.79290476  0.56947027     0.21600
H887        H  0.94453783  0.69602946  0.41906021     0.26900
H888        H  0.03804682  0.68722829  0.56504160     0.15700
C889        C  0.88505657  0.70340839  0.79359588    -0.11600
C890        C  0.87463320  0.72997649  0.77210476     0.15000
C891        C  0.86462693  0.75546586  0.79730044     0.01900
C892        C  0.86612840  0.75403941  0.84338772    -0.15900
C893        C  0.87639955  0.72730276  0.86531734    -0.10700
C894        C  0.88601013  0.70157729  0.83970089     0.08600
C895        C  0.87448913  0.72985278  0.72333060     0.09600
S896        S  0.84916009  0.79017392  0.77290238    -0.25100
H897        H  0.85836193  0.77380339  0.86226825     0.19900
S898        S  0.90069792  0.66649723  0.86431118    -0.30800
H899        H  0.89278059  0.68406828  0.77382656     0.10200
C900        C  0.89517230  0.74797279  0.69854743     0.03400
C901        C  0.89449001  0.74631263  0.65234919    -0.13100
C902        C  0.87414269  0.72627916  0.63056803    -0.08700
C903        C  0.85360330  0.70802392  0.65557777     0.06800
C904        C  0.85416117  0.70986430  0.70158501    -0.13800
S905        S  0.92340558  0.77198439  0.72568047    -0.30800
H906        H  0.91036883  0.76007130  0.63305562     0.11100
S907        S  0.82542113  0.68283932  0.63086807    -0.27900
H908        H  0.83837729  0.69582102  0.72069371     0.08300
H909        H  0.90278466  0.64890765  0.82542503     0.26800
H910        H  0.93683512  0.78413498  0.68717291     0.21600
H911        H  0.81839268  0.70273642  0.59565662     0.26900
H912        H  0.83779239  0.77639260  0.73424138     0.15700
C913        C  0.85735000  0.74500202  0.29507555    -0.11600
C914        C  0.87278459  0.72137066  0.27258062     0.15000
C915        C  0.88754013  0.69778295  0.29677856     0.01900
C916        C  0.88650186  0.69837116  0.34288437    -0.15900
C917        C  0.87148765  0.72230404  0.36562078    -0.10700
C918        C  0.85607355  0.74549292  0.34114451     0.08600
C919        C  0.87310605  0.72215347  0.22389768     0.09600
S920        S  0.90840487  0.66656137  0.27100894    -0.25100
H921        H  0.89832161  0.68044046  0.36113211     0.19900
S922        S  0.83304499  0.77539940  0.36625456    -0.30800
H923        H  0.84564981  0.76287833  0.27648565     0.10200
C924        C  0.85521939  0.70165469  0.19855742     0.03400
C925        C  0.85705513  0.70286833  0.15239637    -0.13100
C926        C  0.87609879  0.72445998  0.13114641    -0.08700
C927        C  0.89395635  0.74495580  0.15682449     0.06800
C928        C  0.89195165  0.74383565  0.20280578    -0.13800
S929        S  0.82947846  0.67461882  0.22498982    -0.30800
H930        H  0.84317213  0.68733825  0.13268804     0.11100
S931        S  0.92096745  0.77181289  0.13310224    -0.27900
H932        H  0.90582651  0.75945291  0.22241833     0.08300
H933        H  0.82017549  0.75598137  0.39858761     0.26800
H934        H  0.81782498  0.66127434  0.18612949     0.21600
H935        H  0.93096145  0.75150809  0.09984542     0.26900
H936        H  0.91738786  0.68277366  0.23299300     0.15700
C937        C  0.01920529  0.70773445  0.98022289    -0.11600
C938        C  0.03358888  0.72944429  0.00754741     0.15000
C939        C  0.01545597  0.75107450  0.03073014     0.01900
C940        C  0.98337685  0.75063956  0.02586526    -0.15900
C941        C  0.96881669  0.72854271  0.99913050    -0.10700
C942        C  0.98715268  0.70722620  0.97542386     0.08600
C943        C  0.06762589  0.73017315  0.00843955     0.09600
S944        S  0.03178935  0.77950763  0.06729429    -0.25100
H945        H  0.96964992  0.76719850  0.04404880     0.19900
S946        S  0.97134209  0.68016298  0.93645044    -0.30800
H947        H  0.03316070  0.69159185  0.96160232     0.10200
C948        C  0.08472999  0.70828978  0.03248526     0.03400
C949        C  0.11703219  0.70858633  0.02992427    -0.13100
C950        C  0.13255220  0.73033894  0.00368702    -0.08700
C951        C  0.11514495  0.75209195  0.97935154     0.06800
C952        C  0.08298072  0.75201708  0.98248845    -0.13800
S953        S  0.06534725  0.68046694  0.06706879    -0.30800
H954        H  0.13029686  0.69207428  0.04885424     0.11100
S955        S  0.13232994  0.77919542  0.94155906    -0.27900
H956        H  0.06971775  0.76847105  0.96340621     0.08300
H957        H  0.94885262  0.70067187  0.92035512     0.26800
H958        H  0.09201445  0.66518128  0.08188891     0.21600
H959        H  0.15469382  0.75841762  0.92577862     0.26900
H960        H  0.05771587  0.76208786  0.07967865     0.15700
C961        C  0.35095929  0.24769519  0.79748433    -0.11600
C962        C  0.37198119  0.22915952  0.77437543     0.15000
C963        C  0.39390254  0.21166393  0.79796144     0.01900
C964        C  0.39435150  0.21308589  0.84402012    -0.15900
C965        C  0.37300217  0.23119394  0.86735403    -0.10700
C966        C  0.35136527  0.24912095  0.84357995     0.08600
C967        C  0.37139833  0.22956912  0.72565988     0.09600
S968        S  0.42157916  0.18677178  0.77128013    -0.25100
H969        H  0.41102669  0.19923993  0.86185572     0.19900
S970        S  0.32485895  0.27549227  0.86972428    -0.30800
H971        H  0.33452061  0.26165230  0.77935061     0.10200
C972        C  0.34729912  0.21561639  0.70184213     0.03400
C973        C  0.34811088  0.21590004  0.65561525    -0.13100
C974        C  0.37246169  0.23004144  0.63267560    -0.08700
C975        C  0.39595569  0.24509980  0.65688864     0.06800
C976        C  0.39538399  0.24426885  0.70297897    -0.13800
S977        S  0.31622818  0.19629320  0.73030591    -0.30800
H978        H  0.33007873  0.20437836  0.63725156     0.11100
S979        S  0.42642277  0.26701632  0.63130304    -0.27900
H980        H  0.41355401  0.25557068  0.72142965     0.08300
H981        H  0.34589718  0.28548835  0.90199996     0.26800
H982        H  0.29841202  0.18973885  0.69270778     0.21600
H983        H  0.40742969  0.27989311  0.59848261     0.26900
H984        H  0.40284961  0.17890438  0.73516989     0.15700
C985        C  0.35432938  0.24150801  0.29628391    -0.11600
C986        C  0.37624958  0.22344230  0.27421369     0.15000
C987        C  0.39784222  0.20626013  0.29888593     0.01900
C988        C  0.39697316  0.20750438  0.34503876    -0.15900
C989        C  0.37474945  0.22527130  0.36729782    -0.10700
C990        C  0.35357902  0.24294265  0.34234476     0.08600
C991        C  0.37659736  0.22406851  0.22547023     0.09600
S992        S  0.42690388  0.18227743  0.27354554    -0.25100
H993        H  0.41343555  0.19395580  0.36375833     0.19900
S994        S  0.32636863  0.26923690  0.36699993    -0.30800
H995        H  0.33811803  0.25522735  0.27732969     0.10200
C996        C  0.35419887  0.20820382  0.20074240     0.03400
C997        C  0.35458997  0.21031560  0.15461199    -0.13100
C998        C  0.37696288  0.22798565  0.13261603    -0.08700
C999        C  0.39918660  0.24420207  0.15769203     0.06800
C1000       C  0.39896905  0.24174788  0.20373902    -0.13800
S1001       S  0.32558006  0.18469082  0.22797845    -0.30800
H1002       H  0.33763605  0.19779792  0.13550125     0.11100
S1003       S  0.42724421  0.26971293  0.13332523    -0.27900
H1004       H  0.41588042  0.25433485  0.22291088     0.08300
H1005       H  0.34683807  0.27995739  0.39955283     0.26800
H1006       H  0.31126502  0.17356577  0.18952181     0.21600
H1007       H  0.40711907  0.28152234  0.10108044     0.26900
H1008       H  0.41026407  0.17533820  0.23505222     0.15700
C1009       C  0.39217272  0.08333254  0.52617814    -0.11600
C1010       C  0.36916910  0.06787688  0.50250396     0.15000
C1011       C  0.34592989  0.08507286  0.48113357     0.01900
C1012       C  0.34659013  0.11733002  0.48317687    -0.15900
C1013       C  0.37021695  0.13293557  0.50568946    -0.10700
C1014       C  0.39273439  0.11551745  0.52854333     0.08600
C1015       C  0.36970672  0.03379349  0.50202061     0.09600
S1016       S  0.31522955  0.06729698  0.45013819    -0.25100
H1017       H  0.32905060  0.13034392  0.46580408     0.19900
S1018       S  0.42182594  0.13271756  0.56313110    -0.30800
H1019       H  0.40956233  0.07012270  0.54357701     0.10200
C1020       C  0.39184497  0.01748213  0.47723226     0.03400
C1021       C  0.39236588  0.98516963  0.47895601    -0.13100
C1022       C  0.37111730  0.96879022  0.50492507    -0.08700
C1023       C  0.34929235  0.98537406  0.53038725     0.06800
C1024       C  0.34859746  0.01759728  0.52819813    -0.13800
S1025       S  0.41873501  0.03784087  0.44225297    -0.30800
H1026       H  0.40896124  0.97256196  0.45924951     0.11100
S1027       S  0.32284885  0.96703539  0.56805507    -0.27900
H1028       H  0.33195326  0.03023530  0.54788073     0.08300
H1029       H  0.40232180  0.15585852  0.58001407     0.26800
H1030       H  0.43511682  0.01177416  0.42755328     0.21600
H1031       H  0.34408383  0.94469651  0.58264278     0.26900
H1032       H  0.33210868  0.04131857  0.43641225     0.15700
C1033       C  0.40325096  0.88555499  0.70374011    -0.11600
C1034       C  0.37939479  0.87096596  0.72686916     0.15000
C1035       C  0.35470540  0.85778458  0.70324956     0.01900
C1036       C  0.35416011  0.85982164  0.65722522    -0.15900
C1037       C  0.37791791  0.87458016  0.63379852    -0.10700
C1038       C  0.40262806  0.88789828  0.65770978     0.08600
C1039       C  0.37923080  0.87277212  0.77559271     0.09600
S1040       S  0.32319251  0.83818694  0.73001868    -0.25100
H1041       H  0.33512400  0.84937291  0.63953367     0.19900
S1042       S  0.43282010  0.91018281  0.63217487    -0.30800
H1043       H  0.42186629  0.89638088  0.72190712     0.10200
C1044       C  0.40078424  0.85658084  0.80152656     0.03400
C1045       C  0.39982961  0.85959579  0.84760961    -0.13100
C1046       C  0.37769572  0.87842893  0.86821563    -0.08700
C1047       C  0.35662638  0.89516223  0.84189689     0.06800
C1048       C  0.35743564  0.89189647  0.79606160    -0.13800
S1049       S  0.42857159  0.83110390  0.77609128    -0.30800
H1050       H  0.41584211  0.84660980  0.86776977     0.11100
S1051       S  0.32912121  0.92210193  0.86447403    -0.27900
H1052       H  0.34126722  0.90481144  0.77601267     0.08300
H1053       H  0.41284204  0.92588550  0.60328053     0.26800
H1054       H  0.44455199  0.82338377  0.81492390     0.21600
H1055       H  0.34882623  0.93311560  0.89779202     0.26900
H1056       H  0.34036836  0.82727025  0.76611173     0.15700
C1057       C  0.34392381  0.88857672  0.29785865    -0.11600
C1058       C  0.36863711  0.87514841  0.27498909     0.15000
C1059       C  0.39346136  0.86247378  0.29892571     0.01900
C1060       C  0.39330427  0.86396750  0.34498168    -0.15900
C1061       C  0.36864860  0.87745861  0.36819470    -0.10700
C1062       C  0.34372436  0.89011893  0.34400402     0.08600
C1063       C  0.36886038  0.87651343  0.22622945     0.09600
S1064       S  0.42589860  0.84387506  0.27271285    -0.25100
H1065       H  0.41246904  0.85391911  0.36287649     0.19900
S1066       S  0.31191862  0.91013665  0.36947431    -0.30800
H1067       H  0.32505340  0.89877345  0.27947506     0.10200
C1068       C  0.34855602  0.85855437  0.20068671     0.03400
C1069       C  0.34964335  0.86069871  0.15453280    -0.13100
C1070       C  0.37091770  0.88014811  0.13337937    -0.08700
C1071       C  0.39095857  0.89843341  0.15925188     0.06800
C1072       C  0.38984183  0.89623665  0.20525123    -0.13800
S1073       S  0.32219518  0.83197638  0.22681134    -0.30800
H1074       H  0.33437150  0.84660446  0.13476403     0.11100
S1075       S  0.41757538  0.92586386  0.13584904    -0.27900
H1076       H  0.40522437  0.91028785  0.22497688     0.08300
H1077       H  0.33048772  0.92627391  0.39972612     0.26800
H1078       H  0.31139589  0.81803736  0.18787215     0.21600
H1079       H  0.39772434  0.93540101  0.10178484     0.26900
H1080       H  0.40975582  0.83317261  0.23555317     0.15700
C1081       C  0.34770781  0.02123598  0.01972618    -0.11600
C1082       C  0.37042334  0.03714484  0.99598824     0.15000
C1083       C  0.39391090  0.02038346  0.97439743     0.01900
C1084       C  0.39431420  0.98819132  0.97725410    -0.15900
C1085       C  0.37152492  0.97212387  0.00080998    -0.10700
C1086       C  0.34816960  0.98903635  0.02280473     0.08600
C1087       C  0.37041311  0.07123465  0.99718659     0.09600
S1088       S  0.42394864  0.03869279  0.94261728    -0.25100
H1089       H  0.41226929  0.97554685  0.96014748     0.19900
S1090       S  0.31951202  0.97124169  0.05758335    -0.30800
H1091       H  0.33005755  0.03410311  0.03715186     0.10200
C1092       C  0.34836853  0.08872653  0.97398282     0.03400
C1093       C  0.34960868  0.12104173  0.97586438    -0.13100
C1094       C  0.37245701  0.13619296  0.00054392    -0.08700
C1095       C  0.39394963  0.11843020  0.02477961     0.06800
C1096       C  0.39291527  0.08626008  0.02236739    -0.13800
S1097       S  0.31934877  0.06990245  0.94086133    -0.30800
H1098       H  0.33309017  0.13458825  0.95739630     0.11100
S1099       S  0.42224738  0.13521544  0.06108642    -0.27900
H1100       H  0.40949217  0.07274750  0.04083490     0.08300
H1101       H  0.33980718  0.94932959  0.07576007     0.26800
H1102       H  0.30571270  0.09689679  0.92405538     0.21600
H1103       H  0.40260570  0.15856661  0.07699459     0.26900
H1104       H  0.40653879  0.06448162  0.92957360     0.15700
loop_ 
_geom_bond_atom_site_label_1 
_geom_bond_atom_site_label_2 
_geom_bond_distance 
_geom_bond_site_symmetry_2 
_ccdc_geom_bond_type 
O1           Ni9   1.919       .  S
O1           C11   1.280       .  A
O2           Ni9   1.919       .  S
O2           C12   1.282       .  A
O3           Ni9   1.916       .  S
O3           C13   1.281       .  A
O4           Ni9   1.916   1_556  S
O4           C14   1.281       .  A
O5          Ni10   1.915       .  S
O5           C14   1.281       .  A
O6          Ni10   1.917   1_554  S
O6           C13   1.281       .  A
O7          Ni10   1.914       .  S
O7           C12   1.280   1_556  A
O8          Ni10   1.913       .  S
O8           C11   1.279   1_556  A
Ni9         Ni10   2.390   1_554  S
C11         C209   1.457       .  S
C12        C1085   1.479       .  S
C13        C1070   1.477       .  S
C14        C1046   1.476       .  S
O15         Ni23   1.918       .  S
O15          C25   1.280       .  A
O16         Ni23   1.919       .  S
O16          C26   1.282       .  A
O17         Ni23   1.914       .  S
O17          C27   1.280       .  A
O18         Ni23   1.913       .  S
O18          C28   1.281       .  A
O19         Ni24   1.919       .  S
O19          C28   1.282       .  A
O20         Ni24   1.918       .  S
O20          C27   1.282       .  A
O21         Ni24   1.914       .  S
O21          C26   1.280       .  A
O22         Ni24   1.914       .  S
O22          C25   1.279       .  A
Ni23        Ni24   2.388       .  S
C25         C221   1.457       .  S
C26        C1022   1.479       .  S
C27        C1037   1.483       .  S
C28        C1061   1.483       .  S
O29         Ni37   1.914       .  S
O29          C39   1.279       .  A
O30         Ni37   1.916   1_556  S
O30          C40   1.281       .  A
O31         Ni37   1.915       .  S
O31          C41   1.281       .  A
O32         Ni37   1.914   1_556  S
O32          C42   1.280       .  A
O33         Ni38   1.916       .  S
O33          C42   1.282       .  A
O34         Ni38   1.917   1_554  S
O34          C41   1.281       .  A
O35         Ni38   1.916       .  S
O35          C40   1.281       .  A
O36         Ni38   1.915       .  S
O36          C39   1.279   1_556  A
Ni37        Ni38   2.390   1_554  S
C39         C179   1.454       .  S
C40        C1094   1.478   1_556  S
C41         C998   1.478       .  S
C42         C965   1.477       .  S
O43         Ni51   1.914       .  S
O43          C53   1.279       .  A
O44         Ni51   1.918       .  S
O44          C54   1.281       .  A
O45         Ni51   1.916       .  S
O45          C55   1.281       .  A
O46         Ni51   1.917       .  S
O46          C56   1.281       .  A
O47         Ni52   1.917       .  S
O47          C56   1.281       .  A
O48         Ni52   1.914       .  S
O48          C55   1.281       .  A
O49         Ni52   1.915       .  S
O49          C54   1.281       .  A
O50         Ni52   1.915       .  S
O50          C53   1.279       .  A
Ni51        Ni52   2.390       .  S
C53         C195   1.455       .  S
C54        C1013   1.480       .  S
C55         C974   1.479       .  S
C56         C989   1.480       .  S
O57         Ni65   1.915       .  S
O57          C67   1.279       .  A
O58         Ni65   1.918       .  S
O58          C68   1.282       .  A
O59         Ni65   1.912   1_554  S
O59          C69   1.280       .  A
O60         Ni65   1.910       .  S
O60          C70   1.279       .  A
O61         Ni66   1.922       .  S
O61          C70   1.283       .  A
O62         Ni66   1.918   1_554  S
O62          C69   1.282       .  A
O63         Ni66   1.915       .  S
O63          C68   1.281       .  A
O64         Ni66   1.916       .  S
O64          C67   1.280       .  A
Ni65        Ni66   2.388       .  S
C67         C265   1.456       .  S
C68         C941   1.479       .  S
C69         C926   1.475       .  S
C70         C893   1.489       .  S
O71         Ni79   1.912       .  S
O71          C81   1.278       .  A
O72         Ni79   1.915       .  S
O72          C82   1.281       .  A
O73         Ni79   1.919       .  S
O73          C83   1.282       .  A
O74         Ni79   1.918       .  S
O74          C84   1.282       .  A
O75         Ni80   1.910       .  S
O75          C84   1.280       .  A
O76         Ni80   1.910       .  S
O76          C83   1.279       .  A
O77         Ni80   1.915       .  S
O77          C82   1.281       .  A
O78         Ni80   1.916       .  S
O78          C81   1.280       .  A
Ni79        Ni80   2.391       .  S
C81         C277   1.454       .  S
C82         C878   1.476       .  S
C83         C902   1.472       .  S
C84         C917   1.479       .  S
O85         Ni93   1.916       .  S
O85          C95   1.280       .  A
O86         Ni93   1.914       .  S
O86          C96   1.281       .  A
O87         Ni93   1.919       .  S
O87          C97   1.282       .  A
O88         Ni93   1.919   1_556  S
O88          C98   1.282       .  A
O89         Ni94   1.914   1_556  S
O89          C98   1.281       .  A
O90         Ni94   1.912       .  S
O90          C97   1.280       .  A
O91         Ni94   1.919       .  S
O91          C96   1.282       .  A
O92         Ni94   1.916       .  S
O92          C95   1.280       .  A
Ni93        Ni94   2.391       .  S
C95         C207   1.457       .  S
C96         C950   1.479       .  S
C97         C845   1.475       .  S
C98         C821   1.478       .  S
O99        Ni107   1.914       .  S
O99         C109   1.279       .  A
O100       Ni107   1.912       .  S
O100        C110   1.280       .  A
O101       Ni107   1.912       .  S
O101        C111   1.281       .  A
O102       Ni107   1.913       .  S
O102        C112   1.280       .  A
O103       Ni108   1.919       .  S
O103        C112   1.282       .  A
O104       Ni108   1.919       .  S
O104        C111   1.282       .  A
O105       Ni108   1.915       .  S
O105        C110   1.281       .  A
O106       Ni108   1.917       .  S
O106        C109   1.280       .  A
Ni107      Ni108   2.389       .  S
C109        C223   1.456       .  S
C110        C869   1.478       .  S
C111        C830   1.480       .  S
C112        C854   1.481       .  S
O113       Ni121   1.913       .  S
O113        C123   1.279       .  A
O114       Ni121   1.914       .  S
O114        C124   1.280       .  A
O115       Ni121   1.919   1_554  S
O115        C125   1.282       .  A
O116       Ni121   1.918       .  S
O116        C126   1.282       .  A
O117       Ni122   1.911       .  S
O117        C126   1.280       .  A
O118       Ni122   1.911   1_554  S
O118        C125   1.280       .  A
O119       Ni122   1.918       .  S
O119        C124   1.282       .  A
O120       Ni122   1.920       .  S
O120        C123   1.281       .  A
Ni121      Ni122   2.390       .  S
C123        C237   1.458       .  S
C124        C797   1.479       .  S
C125        C773   1.480       .  S
C126        C749   1.476       .  S
O127       Ni135   1.916       .  S
O127        C137   1.280       .  A
O128       Ni135   1.915       .  S
O128        C138   1.281       .  A
O129       Ni135   1.913       .  S
O129        C139   1.280       .  A
O130       Ni135   1.914       .  S
O130        C140   1.280       .  A
O131       Ni136   1.918       .  S
O131        C140   1.282       .  A
O132       Ni136   1.918       .  S
O132        C139   1.282       .  A
O133       Ni136   1.917       .  S
O133        C138   1.281       .  A
O134       Ni136   1.916       .  S
O134        C137   1.279       .  A
Ni135      Ni136   2.390       .  S
C137        C249   1.456       .  S
C138        C725   1.481       .  S
C139        C758   1.478       .  S
C140        C782   1.478       .  S
O141       Ni149   1.918       .  S
O141        C151   1.280       .  A
O142       Ni149   1.917       .  S
O142        C152   1.281       .  A
O143       Ni149   1.911   1_554  S
O143        C153   1.280       .  A
O144       Ni149   1.911       .  S
O144        C154   1.280       .  A
O145       Ni150   1.921       .  S
O145        C154   1.282       .  A
O146       Ni150   1.920   1_554  S
O146        C153   1.282       .  A
O147       Ni150   1.912       .  S
O147        C152   1.281       .  A
O148       Ni150   1.911       .  S
O148        C151   1.278       .  A
Ni149      Ni150   2.390       .  S
C151        C263   1.454       .  S
C152        C806   1.480       .  S
C153        C710   1.476       .  S
C154        C677   1.480       .  S
O155       Ni163   1.918       .  S
O155        C165   1.280       .  A
O156       Ni163   1.919       .  S
O156        C166   1.282       .  A
O157       Ni163   1.918       .  S
O157        C167   1.281       .  A
O158       Ni163   1.916       .  S
O158        C168   1.281       .  A
O159       Ni164   1.916       .  S
O159        C168   1.281       .  A
O160       Ni164   1.915       .  S
O160        C167   1.281       .  A
O161       Ni164   1.909       .  S
O161        C166   1.279       .  A
O162       Ni164   1.911       .  S
O162        C165   1.278       .  A
Ni163      Ni164   2.391       .  S
C165        C279   1.455       .  S
C166        C734   1.474       .  S
C167        C686   1.478       .  S
C168        C701   1.478       .  S
O169       Ni177   1.915       .  S
O169        C179   1.279       .  A
O170       Ni177   1.918       .  S
O170        C180   1.281       .  A
O171       Ni177   1.915       .  S
O171        C181   1.279       .  A
O172       Ni177   1.917       .  S
O172        C182   1.281       .  A
O173       Ni178   1.918       .  S
O173        C182   1.282   1_556  A
O174       Ni178   1.919       .  S
O174        C181   1.281   1_556  A
O175       Ni178   1.913       .  S
O175        C180   1.280   1_556  A
O176       Ni178   1.914       .  S
O176        C179   1.279   1_556  A
Ni177      Ni178   2.392   1_554  S
C180        C662   1.474       .  S
C181        C291   1.458       .  S
C182        C638   1.483       .  S
O183       Ni191   1.918       .  S
O183        C193   1.281       .  A
O184       Ni191   1.917       .  S
O184        C194   1.282       .  A
O185       Ni191   1.913       .  S
O185        C195   1.279       .  A
O186       Ni191   1.914       .  S
O186        C196   1.281       .  A
O187       Ni192   1.916       .  S
O187        C196   1.281       .  A
O188       Ni192   1.916       .  S
O188        C195   1.280       .  A
O189       Ni192   1.909       .  S
O189        C194   1.279       .  A
O190       Ni192   1.910       .  S
O190        C193   1.278       .  A
Ni191      Ni192   2.392       .  S
C193        C305   1.454       .  S
C194        C581   1.476       .  S
C196        C614   1.477       .  S
O197       Ni205   1.917       .  S
O197        C207   1.280       .  A
O198       Ni205   1.914       .  S
O198        C208   1.281   1_554  A
O199       Ni205   1.915       .  S
O199        C209   1.279       .  A
O200       Ni205   1.913       .  S
O200        C210   1.281       .  A
O201       Ni206   1.916       .  S
O201        C210   1.281   1_556  A
O202       Ni206   1.918       .  S
O202        C209   1.280   1_556  A
O203       Ni206   1.916       .  S
O203        C208   1.281       .  A
O204       Ni206   1.916       .  S
O204        C207   1.280   1_556  A
Ni205      Ni206   2.391   1_554  S
C208        C566   1.477       .  S
C210        C653   1.479       .  S
O211       Ni219   1.918       .  S
O211        C221   1.280       .  A
O212       Ni219   1.919       .  S
O212        C222   1.282       .  A
O213       Ni219   1.913       .  S
O213        C223   1.279       .  A
O214       Ni219   1.915       .  S
O214        C224   1.280       .  A
O215       Ni220   1.918       .  S
O215        C224   1.281       .  A
O216       Ni220   1.919       .  S
O216        C223   1.280       .  A
O217       Ni220   1.912       .  S
O217        C222   1.280       .  A
O218       Ni220   1.914       .  S
O218        C221   1.279       .  A
Ni219      Ni220   2.393       .  S
C222        C605   1.476       .  S
C224        C542   1.471       .  S
O225       Ni233   1.914       .  S
O225        C235   1.279   1_554  A
O226       Ni233   1.913       .  S
O226        C236   1.280   1_554  A
O227       Ni233   1.916       .  S
O227        C237   1.280   1_554  A
O228       Ni233   1.916       .  S
O228        C238   1.281   1_554  A
O229       Ni234   1.916       .  S
O229        C238   1.281       .  A
O230       Ni234   1.918       .  S
O230        C237   1.280       .  A
O231       Ni234   1.918       .  S
O231        C236   1.282       .  A
O232       Ni234   1.913       .  S
O232        C235   1.279       .  A
Ni233      Ni234   2.393   1_554  S
C235        C319   1.453       .  S
C236        C629   1.477       .  S
C238        C509   1.473       .  S
O239       Ni247   1.914       .  S
O239        C249   1.279       .  A
O240       Ni247   1.914       .  S
O240        C250   1.281       .  A
O241       Ni247   1.916       .  S
O241        C251   1.280       .  A
O242       Ni247   1.917       .  S
O242        C252   1.281       .  A
O243       Ni248   1.913       .  S
O243        C252   1.280       .  A
O244       Ni248   1.914       .  S
O244        C251   1.279       .  A
O245       Ni248   1.916       .  S
O245        C250   1.281       .  A
O246       Ni248   1.918       .  S
O246        C249   1.280       .  A
Ni247      Ni248   2.392       .  S
C250        C485   1.476       .  S
C251        C333   1.455       .  S
C252        C590   1.475       .  S
O253       Ni261   1.915       .  S
O253        C263   1.280   1_554  A
O254       Ni261   1.916       .  S
O254        C264   1.281       .  A
O255       Ni261   1.918       .  S
O255        C265   1.280   1_554  A
O256       Ni261   1.919       .  S
O256        C266   1.282   1_554  A
O257       Ni262   1.915       .  S
O257        C266   1.281       .  A
O258       Ni262   1.913       .  S
O258        C265   1.279       .  A
O259       Ni262   1.913       .  S
O259        C264   1.281   1_556  A
O260       Ni262   1.914       .  S
O260        C263   1.279       .  A
Ni261      Ni262   2.392   1_554  S
C264        C518   1.479       .  S
C266        C557   1.479       .  S
O267       Ni275   1.914       .  S
O267        C277   1.279       .  A
O268       Ni275   1.915       .  S
O268        C278   1.280       .  A
O269       Ni275   1.914       .  S
O269        C279   1.279       .  A
O270       Ni275   1.918       .  S
O270        C280   1.281       .  A
O271       Ni276   1.917       .  S
O271        C280   1.281       .  A
O272       Ni276   1.915       .  S
O272        C279   1.279       .  A
O273       Ni276   1.918       .  S
O273        C278   1.283       .  A
O274       Ni276   1.915       .  S
O274        C277   1.279       .  A
Ni275      Ni276   2.389       .  S
C278        C533   1.493       .  S
C280        C494   1.478       .  S
O281       Ni289   1.916       .  S
O281        C291   1.279       .  A
O282       Ni289   1.913       .  S
O282        C292   1.282       .  A
O283       Ni289   1.918       .  S
O283        C293   1.280       .  A
O284       Ni289   1.916   1_556  S
O284        C294   1.281       .  A
O285       Ni290   1.921   1_556  S
O285        C294   1.281       .  A
O286       Ni290   1.921       .  S
O286        C293   1.281       .  A
O287       Ni290   1.919       .  S
O287        C292   1.281       .  A
O288       Ni290   1.917       .  S
O288        C291   1.280       .  A
Ni289      Ni290   2.390       .  S
C292        C461   1.483       .  S
C293        C446   1.470       .  S
C294        C413   1.477       .  S
O295       Ni303   1.912       .  S
O295        C305   1.278       .  A
O296       Ni303   1.915       .  S
O296        C306   1.281       .  A
O297       Ni303   1.923       .  S
O297        C307   1.283       .  A
O298       Ni303   1.920       .  S
O298        C308   1.283       .  A
O299       Ni304   1.914       .  S
O299        C308   1.280       .  A
O300       Ni304   1.915       .  S
O300        C307   1.281       .  A
O301       Ni304   1.916       .  S
O301        C306   1.280       .  A
O302       Ni304   1.915       .  S
O302        C305   1.280       .  A
Ni303      Ni304   2.389       .  S
C306        C389   1.473       .  S
C307        C422   1.485       .  S
C308        C437   1.486       .  S
O309       Ni317   1.910       .  S
O309        C319   1.278   1_554  A
O310       Ni317   1.912       .  S
O310        C320   1.280       .  A
O311       Ni317   1.920       .  S
O311        C321   1.282       .  A
O312       Ni317   1.921   1_556  S
O312        C322   1.282       .  A
O313       Ni318   1.917       .  S
O313        C322   1.282       .  A
O314       Ni318   1.918   1_554  S
O314        C321   1.281       .  A
O315       Ni318   1.918   1_554  S
O315        C320   1.282       .  A
O316       Ni318   1.917       .  S
O316        C319   1.280       .  A
Ni317      Ni318   2.390   1_554  S
C320        C470   1.475       .  S
C321        C365   1.482       .  S
C322        C341   1.484       .  S
O323       Ni331   1.912       .  S
O323        C333   1.278       .  A
O324       Ni331   1.915       .  S
O324        C334   1.279       .  A
O325       Ni331   1.923       .  S
O325        C335   1.282       .  A
O326       Ni331   1.924       .  S
O326        C336   1.283       .  A
O327       Ni332   1.917       .  S
O327        C336   1.281       .  A
O328       Ni332   1.915       .  S
O328        C335   1.281       .  A
O329       Ni332   1.918       .  S
O329        C334   1.283       .  A
O330       Ni332   1.918       .  S
O330        C333   1.280       .  A
Ni331      Ni332   2.387       .  S
C334        C398   1.493       .  S
C335        C350   1.479       .  S
C336        C374   1.483       .  S
C337        C338   1.402       .  A
C337        C342   1.402       .  A
C337        H347   1.084       .  S
C338        C343   1.481       .  S
C338        C339   1.411       .  A
C339        C340   1.398       .  A
C339        S344   1.805       .  S
C340        C341   1.405       .  A
C340        H345   1.084       .  S
C341        C342   1.417       .  A
C342        S346   1.802       .  S
C343        C348   1.409       .  A
C343        C352   1.402       .  A
S344        H360   1.405       .  S
S346        H357   1.407       .  S
C348        C349   1.402       .  A
C348        S353   1.807       .  S
C349        C350   1.405       .  A
C349        H354   1.083       .  S
C350        C351   1.415       .  A
C351        C352   1.402       .  A
C351        S355   1.803       .  S
C352        H356   1.084       .  S
S353        H358   1.407       .  S
S355        H359   1.407       .  S
C361        C362   1.401       .  A
C361        C366   1.398       .  A
C361        H371   1.084       .  S
C362        C367   1.480       .  S
C362        C363   1.413       .  A
C363        C364   1.402       .  A
C363        S368   1.805       .  S
C364        C365   1.406       .  A
C364        H369   1.084       .  S
C365        C366   1.415       .  A
C366        S370   1.803       .  S
C367        C372   1.409       .  A
C367        C376   1.400       .  A
S368        H384   1.405       .  S
S370        H381   1.407       .  S
C372        C373   1.406       .  A
C372        S377   1.806       .  S
C373        C374   1.407       .  A
C373        H378   1.083       .  S
C374        C375   1.414       .  A
C375        C376   1.397       .  A
C375        S379   1.799       .  S
C376        H380   1.084       .  S
S377        H382   1.407       .  S
S379        H383   1.407       .  S
C385        C386   1.404       .  A
C385        C390   1.398       .  A
C385        H395   1.084       .  S
C386        C391   1.483       .  S
C386        C387   1.414       .  A
C387        C388   1.399       .  A
C387        S392   1.804       .  S
C388        C389   1.403       .  A
C388        H393   1.084       .  S
C389        C390   1.413       .  A
C390        S394   1.804       .  S
C391        C396   1.408       .  A
C391        C400   1.400       .  A
S392        H408   1.406       .  S
S394        H405   1.406       .  S
C396        C397   1.402   1_455  A
C396        S401   1.808       .  S
C397        C398   1.410       .  A
C397        H402   1.082       .  S
C398        C399   1.422       .  A
C399        C400   1.399   1_655  A
C399        S403   1.802       .  S
C400        H404   1.084       .  S
S401        H406   1.406       .  S
S403        H407   1.402       .  S
C409        C410   1.401       .  A
C409        C414   1.398       .  A
C409        H419   1.085       .  S
C410        C415   1.479       .  S
C410        C411   1.414       .  A
C411        C412   1.402       .  A
C411        S416   1.806       .  S
C412        C413   1.404       .  A
C412        H417   1.085       .  S
C413        C414   1.414       .  A
C414        S418   1.804       .  S
C415        C420   1.407       .  A
C415        C424   1.401       .  A
S416        H432   1.404       .  S
S418        H429   1.407       .  S
C420        C421   1.404       .  A
C420        S425   1.806       .  S
C421        C422   1.408       .  A
C421        H426   1.082       .  S
C422        C423   1.417       .  A
C423        C424   1.400       .  A
C423        S427   1.803       .  S
C424        H428   1.083       .  S
S425        H430   1.407       .  S
S427        H431   1.408       .  S
C433        C434   1.401       .  A
C433        C438   1.398       .  A
C433        H443   1.084       .  S
C434        C439   1.485       .  S
C434        C435   1.413       .  A
C435        C436   1.401       .  A
C435        S440   1.804       .  S
C436        C437   1.406       .  A
C436        H441   1.084       .  S
C437        C438   1.418       .  A
C438        S442   1.802       .  S
C439        C444   1.413       .  A
C439        C448   1.403       .  A
S440        H456   1.406       .  S
S442        H453   1.408       .  S
C444        C445   1.404       .  A
C444        S449   1.807       .  S
C445        C446   1.402       .  A
C445        H450   1.083       .  S
C446        C447   1.412       .  A
C447        C448   1.399       .  A
C447        S451   1.803       .  S
C448        H452   1.084       .  S
S449        H454   1.407       .  S
S451        H455   1.403       .  S
C457        C458   1.402       .  A
C457        C462   1.400       .  A
C457        H467   1.085       .  S
C458        C463   1.478       .  S
C458        C459   1.409   1_554  A
C459        C460   1.397       .  A
C459        S464   1.804       .  S
C460        C461   1.407   1_556  A
C460        H465   1.084       .  S
C461        C462   1.418       .  A
C462        S466   1.804       .  S
C463        C468   1.409   1_554  A
C463        C472   1.402       .  A
S464        H480   1.406       .  S
S466        H477   1.404       .  S
C468        C469   1.402   1_455  A
C468        S473   1.807       .  S
C469        C470   1.405   1_556  A
C469        H474   1.082       .  S
C470        C471   1.414       .  A
C471        C472   1.398   1_655  A
C471        S475   1.803       .  S
C472        H476   1.083       .  S
S473        H478   1.407       .  S
S475        H479   1.407       .  S
C481        C482   1.401       .  A
C481        C486   1.399       .  A
C481        H491   1.083       .  S
C482        C487   1.476       .  S
C482        C483   1.411       .  A
C483        C484   1.398       .  A
C483        S488   1.805       .  S
C484        C485   1.404       .  A
C484        H489   1.083       .  S
C485        C486   1.415       .  A
C486        S490   1.804       .  S
C487        C492   1.408       .  A
C487        C496   1.399       .  A
S488        H504   1.405       .  S
S490        H501   1.407       .  S
C492        C493   1.403       .  A
C492        S497   1.806       .  S
C493        C494   1.405       .  A
C493        H498   1.083       .  S
C494        C495   1.415       .  A
C495        C496   1.398       .  A
C495        S499   1.800       .  S
C496        H500   1.084       .  S
S497        H502   1.407       .  S
S499        H503   1.407       .  S
C505        C506   1.401       .  A
C505        C510   1.398       .  A
C505        H515   1.083       .  S
C506        C511   1.475       .  S
C506        C507   1.412   1_554  A
C507        C508   1.399       .  A
C507        S512   1.805       .  S
C508        C509   1.404       .  A
C508        H513   1.084       .  S
C509        C510   1.413   1_556  A
C510        S514   1.803       .  S
C511        C516   1.407   1_554  A
C511        C520   1.400       .  A
S512        H528   1.404       .  S
S514        H525   1.407       .  S
C516        C517   1.401       .  A
C516        S521   1.807       .  S
C517        C518   1.405   1_556  A
C517        H522   1.083       .  S
C518        C519   1.417       .  A
C519        C520   1.399       .  A
C519        S523   1.803       .  S
C520        H524   1.084       .  S
S521        H526   1.407       .  S
S523        H527   1.408       .  S
C529        C530   1.400       .  A
C529        C534   1.399       .  A
C529        H539   1.084       .  S
C530        C535   1.482       .  S
C530        C531   1.410       .  A
C531        C532   1.398       .  A
C531        S536   1.804       .  S
C532        C533   1.410       .  A
C532        H537   1.083       .  S
C533        C534   1.422       .  A
C534        S538   1.801       .  S
C535        C540   1.411       .  A
C535        C544   1.403       .  A
S536        H552   1.406       .  S
S538        H549   1.403       .  S
C540        C541   1.403       .  A
C540        S545   1.807       .  S
C541        C542   1.403       .  A
C541        H546   1.083       .  S
C542        C543   1.411       .  A
C543        C544   1.397       .  A
C543        S547   1.802       .  S
C544        H548   1.084       .  S
S545        H550   1.407       .  S
S547        H551   1.406       .  S
C553        C554   1.400   1_556  A
C553        C558   1.398       .  A
C553        H563   1.085       .  S
C554        C559   1.478       .  S
C554        C555   1.412       .  A
C555        C556   1.400       .  A
C555        S560   1.805       .  S
C556        C557   1.405   1_554  A
C556        H561   1.084       .  S
C557        C558   1.416       .  A
C558        S562   1.803       .  S
C559        C564   1.409       .  A
C559        C568   1.401   1_554  A
S560        H576   1.405       .  S
S562        H573   1.407       .  S
C564        C565   1.401       .  A
C564        S569   1.807       .  S
C565        C566   1.404   1_554  A
C565        H570   1.083       .  S
C566        C567   1.416       .  A
C567        C568   1.399       .  A
C567        S571   1.803       .  S
C568        H572   1.084       .  S
S569        H574   1.407       .  S
S571        H575   1.407       .  S
C577        C578   1.400       .  A
C577        C582   1.398       .  A
C577        H587   1.084       .  S
C578        C583   1.475       .  S
C578        C579   1.411       .  A
C579        C580   1.398       .  A
C579        S584   1.804       .  S
C580        C581   1.404       .  A
C580        H585   1.084       .  S
C581        C582   1.416       .  A
C582        S586   1.804       .  S
C583        C588   1.408       .  A
C583        C592   1.400       .  A
S584        H600   1.405       .  S
S586        H597   1.407       .  S
C588        C589   1.402       .  A
C588        S593   1.807       .  S
C589        C590   1.405       .  A
C589        H594   1.083       .  S
C590        C591   1.415       .  A
C591        C592   1.397       .  A
C591        S595   1.803       .  S
C592        H596   1.084       .  S
S593        H598   1.407       .  S
S595        H599   1.407       .  S
C601        C602   1.401       .  A
C601        C606   1.399       .  A
C601        H611   1.084       .  S
C602        C607   1.476       .  S
C602        C603   1.411       .  A
C603        C604   1.398       .  A
C603        S608   1.804       .  S
C604        C605   1.405       .  A
C604        H609   1.084       .  S
C605        C606   1.414       .  A
C606        S610   1.803       .  S
C607        C612   1.408       .  A
C607        C616   1.400       .  A
S608        H624   1.405       .  S
S610        H621   1.407       .  S
C612        C613   1.402       .  A
C612        S617   1.806       .  S
C613        C614   1.405       .  A
C613        H618   1.083       .  S
C614        C615   1.415       .  A
C615        C616   1.398       .  A
C615        S619   1.803       .  S
C616        H620   1.084       .  S
S617        H622   1.407       .  S
S619        H623   1.407       .  S
C625        C626   1.402   1_554  A
C625        C630   1.399       .  A
C625        H635   1.083       .  S
C626        C631   1.479       .  S
C626        C627   1.413       .  A
C627        C628   1.399       .  A
C627        S632   1.805       .  S
C628        C629   1.404       .  A
C628        H633   1.083       .  S
C629        C630   1.415   1_556  A
C630        S634   1.803       .  S
C631        C636   1.408       .  A
C631        C640   1.400   1_556  A
S632        H648   1.405       .  S
S634        H645   1.407       .  S
C636        C637   1.403       .  A
C636        S641   1.807       .  S
C637        C638   1.407   1_556  A
C637        H642   1.083       .  S
C638        C639   1.417       .  A
C639        C640   1.399       .  A
C639        S643   1.803       .  S
C640        H644   1.085       .  S
S641        H646   1.407       .  S
S643        H647   1.408       .  S
C649        C650   1.400       .  A
C649        C654   1.398       .  A
C649        H659   1.085       .  S
C650        C655   1.475       .  S
C650        C651   1.412   1_554  A
C651        C652   1.399       .  A
C651        S656   1.805       .  S
C652        C653   1.405   1_556  A
C652        H657   1.084       .  S
C653        C654   1.416       .  A
C654        S658   1.803       .  S
C655        C660   1.407   1_554  A
C655        C664   1.401       .  A
S656        H672   1.405       .  S
S658        H669   1.408       .  S
C660        C661   1.401       .  A
C660        S665   1.806       .  S
C661        C662   1.404   1_556  A
C661        H666   1.083       .  S
C662        C663   1.414       .  A
C663        C664   1.399       .  A
C663        S667   1.803       .  S
C664        H668   1.084       .  S
S665        H670   1.407       .  S
S667        H671   1.407       .  S
C673        C674   1.402       .  A
C673        C678   1.400       .  A
C673        H683   1.083       .  S
C674        C679   1.478       .  S
C674        C675   1.411       .  A
C675        C676   1.398       .  A
C675        S680   1.805       .  S
C676        C677   1.406       .  A
C676        H681   1.082       .  S
C677        C678   1.415       .  A
C678        S682   1.803       .  S
C679        C684   1.409       .  A
C679        C688   1.400       .  A
S680        H696   1.405       .  S
S682        H693   1.408       .  S
C684        C685   1.404       .  A
C684        S689   1.807       .  S
C685        C686   1.405       .  A
C685        H690   1.083       .  S
C686        C687   1.414       .  A
C687        C688   1.398       .  A
C687        S691   1.799       .  S
C688        H692   1.084       .  S
S689        H694   1.407       .  S
S691        H695   1.407       .  S
C697        C698   1.400       .  A
C697        C702   1.397       .  A
C697        H707   1.085       .  S
C698        C703   1.476       .  S
C698        C699   1.411       .  A
C699        C700   1.400       .  A
C699        S704   1.805       .  S
C700        C701   1.406       .  A
C700        H705   1.085       .  S
C701        C702   1.415       .  A
C702        S706   1.803       .  S
C703        C708   1.408       .  A
C703        C712   1.400       .  A
S704        H720   1.405       .  S
S706        H717   1.406       .  S
C708        C709   1.402       .  A
C708        S713   1.806       .  S
C709        C710   1.404       .  A
C709        H714   1.083       .  S
C710        C711   1.415       .  A
C711        C712   1.399       .  A
C711        S715   1.804       .  S
C712        H716   1.084       .  S
S713        H718   1.407       .  S
S715        H719   1.407       .  S
C721        C722   1.401       .  A
C721        C726   1.398       .  A
C721        H731   1.084       .  S
C722        C727   1.477       .  S
C722        C723   1.411       .  A
C723        C724   1.399       .  A
C723        S728   1.805       .  S
C724        C725   1.406       .  A
C724        H729   1.084       .  S
C725        C726   1.416       .  A
C726        S730   1.803       .  S
C727        C732   1.409       .  A
C727        C736   1.401       .  A
S728        H744   1.405       .  S
S730        H741   1.408       .  S
C732        C733   1.401   1_545  A
C732        S737   1.806       .  S
C733        C734   1.404       .  A
C733        H738   1.083       .  S
C734        C735   1.414       .  A
C735        C736   1.398   1_565  A
C735        S739   1.803       .  S
C736        H740   1.084       .  S
S737        H742   1.407       .  S
S739        H743   1.406       .  S
C745        C746   1.401       .  A
C745        C750   1.398       .  A
C745        H755   1.084       .  S
C746        C751   1.476       .  S
C746        C747   1.411       .  A
C747        C748   1.399       .  A
C747        S752   1.803       .  S
C748        C749   1.404       .  A
C748        H753   1.084       .  S
C749        C750   1.416       .  A
C750        S754   1.804       .  S
C751        C756   1.408       .  A
C751        C760   1.400       .  A
S752        H768   1.406       .  S
S754        H765   1.407       .  S
C756        C757   1.402       .  A
C756        S761   1.807       .  S
C757        C758   1.406       .  A
C757        H762   1.083       .  S
C758        C759   1.416       .  A
C759        C760   1.398       .  A
C759        S763   1.803       .  S
C760        H764   1.084       .  S
S761        H766   1.406       .  S
S763        H767   1.408       .  S
C769        C770   1.401       .  A
C769        C774   1.397       .  A
C769        H779   1.085       .  S
C770        C775   1.479       .  S
C770        C771   1.411       .  A
C771        C772   1.400       .  A
C771        S776   1.804       .  S
C772        C773   1.405       .  A
C772        H777   1.084       .  S
C773        C774   1.417       .  A
C774        S778   1.803       .  S
C775        C780   1.409       .  A
C775        C784   1.401       .  A
S776        H792   1.406       .  S
S778        H789   1.407       .  S
C780        C781   1.402       .  A
C780        S785   1.807       .  S
C781        C782   1.405       .  A
C781        H786   1.082       .  S
C782        C783   1.415       .  A
C783        C784   1.399       .  A
C783        S787   1.803       .  S
C784        H788   1.084       .  S
S785        H790   1.407       .  S
S787        H791   1.407       .  S
C793        C794   1.402       .  A
C793        C798   1.399       .  A
C793        H803   1.084       .  S
C794        C799   1.478       .  S
C794        C795   1.411   1_556  A
C795        C796   1.398       .  A
C795        S800   1.804       .  S
C796        C797   1.404   1_554  A
C796        H801   1.083       .  S
C797        C798   1.417       .  A
C798        S802   1.803       .  S
C799        C804   1.408   1_556  A
C799        C808   1.402       .  A
S800        H816   1.406       .  S
S802        H813   1.407       .  S
C804        C805   1.401   1_545  A
C804        S809   1.807       .  S
C805        C806   1.406   1_554  A
C805        H810   1.082       .  S
C806        C807   1.416       .  A
C807        C808   1.399   1_565  A
C807        S811   1.803       .  S
C808        H812   1.084       .  S
S809        H814   1.407       .  S
S811        H815   1.407       .  S
C817        C818   1.401       .  A
C817        C822   1.399       .  A
C817        H827   1.084       .  S
C818        C823   1.478       .  S
C818        C819   1.412       .  A
C819        C820   1.399       .  A
C819        S824   1.805       .  S
C820        C821   1.404       .  A
C820        H825   1.084       .  S
C821        C822   1.415       .  A
C822        S826   1.804       .  S
C823        C828   1.408       .  A
C823        C832   1.401       .  A
S824        H840   1.405       .  S
S826        H837   1.407       .  S
C828        C829   1.401       .  A
C828        S833   1.806       .  S
C829        C830   1.405       .  A
C829        H834   1.083       .  S
C830        C831   1.416       .  A
C831        C832   1.400       .  A
C831        S835   1.803       .  S
C832        H836   1.084       .  S
S833        H838   1.407       .  S
S835        H839   1.407       .  S
C841        C842   1.401       .  A
C841        C846   1.397       .  A
C841        H851   1.084       .  S
C842        C847   1.476       .  S
C842        C843   1.412       .  A
C843        C844   1.399       .  A
C843        S848   1.804       .  S
C844        C845   1.404       .  A
C844        H849   1.084       .  S
C845        C846   1.414       .  A
C846        S850   1.804       .  S
C847        C852   1.408       .  A
C847        C856   1.399       .  A
S848        H864   1.406       .  S
S850        H861   1.407       .  S
C852        C853   1.403       .  A
C852        S857   1.807       .  S
C853        C854   1.406       .  A
C853        H858   1.083       .  S
C854        C855   1.417       .  A
C855        C856   1.397       .  A
C855        S859   1.803       .  S
C856        H860   1.084       .  S
S857        H862   1.407       .  S
S859        H863   1.408       .  S
C865        C866   1.401       .  A
C865        C870   1.397       .  A
C865        H875   1.085       .  S
C866        C871   1.477       .  S
C866        C867   1.412       .  A
C867        C868   1.399       .  A
C867        S872   1.805       .  S
C868        C869   1.405       .  A
C868        H873   1.084       .  S
C869        C870   1.416       .  A
C870        S874   1.803       .  S
C871        C876   1.409       .  A
C871        C880   1.401       .  A
S872        H888   1.405       .  S
S874        H885   1.408       .  S
C876        C877   1.402   1_455  A
C876        S881   1.807       .  S
C877        C878   1.404       .  A
C877        H882   1.083       .  S
C878        C879   1.415       .  A
C879        C880   1.398   1_655  A
C879        S883   1.803       .  S
C880        H884   1.085       .  S
S881        H886   1.407       .  S
S883        H887   1.407       .  S
C889        C890   1.398       .  A
C889        C894   1.400       .  A
C889        H899   1.083       .  S
C890        C895   1.478       .  S
C890        C891   1.411       .  A
C891        C892   1.400       .  A
C891        S896   1.806       .  S
C892        C893   1.409       .  A
C892        H897   1.084       .  S
C893        C894   1.421       .  A
C894        S898   1.810       .  S
C895        C900   1.410       .  A
C895        C904   1.402       .  A
S896        H912   1.405       .  S
S898        H909   1.407       .  S
C900        C901   1.402       .  A
C900        S905   1.807       .  S
C901        C902   1.404       .  A
C901        H906   1.083       .  S
C902        C903   1.413       .  A
C903        C904   1.397       .  A
C903        S907   1.803       .  S
C904        H908   1.084       .  S
S905        H910   1.407       .  S
S907        H911   1.406       .  S
C913        C914   1.400       .  A
C913        C918   1.398       .  A
C913        H923   1.084       .  S
C914        C919   1.476       .  S
C914        C915   1.412       .  A
C915        C916   1.398       .  A
C915        S920   1.805       .  S
C916        C917   1.405       .  A
C916        H921   1.083       .  S
C917        C918   1.417       .  A
C918        S922   1.804       .  S
C919        C924   1.409       .  A
C919        C928   1.401       .  A
S920        H936   1.405       .  S
S922        H933   1.408       .  S
C924        C925   1.402       .  A
C924        S929   1.807       .  S
C925        C926   1.405       .  A
C925        H930   1.084       .  S
C926        C927   1.413       .  A
C927        C928   1.397       .  A
C927        S931   1.802       .  S
C928        H932   1.084       .  S
S929        H934   1.407       .  S
S931        H935   1.406       .  S
C937        C938   1.401   1_556  A
C937        C942   1.398   1_455  A
C937        H947   1.083       .  S
C938        C943   1.477       .  S
C938        C939   1.410       .  A
C939        C940   1.400   1_455  A
C939        S944   1.804       .  S
C940        C941   1.405   1_554  A
C940        H945   1.083       .  S
C941        C942   1.414       .  A
C942        S946   1.801       .  S
C943        C948   1.408       .  A
C943        C952   1.400   1_554  A
S944        H960   1.405       .  S
S946        H957   1.407       .  S
C948        C949   1.403       .  A
C948        S953   1.806       .  S
C949        C950   1.406       .  A
C949        H954   1.083       .  S
C950        C951   1.416   1_554  A
C951        C952   1.398       .  A
C951        S955   1.803       .  S
C952        H956   1.084       .  S
S953        H958   1.407       .  S
S955        H959   1.407       .  S
C961        C962   1.402       .  A
C961        C966   1.399       .  A
C961        H971   1.085       .  S
C962        C967   1.477       .  S
C962        C963   1.411       .  A
C963        C964   1.398       .  A
C963        S968   1.804       .  S
C964        C965   1.404       .  A
C964        H969   1.084       .  S
C965        C966   1.416       .  A
C966        S970   1.803       .  S
C967        C972   1.408       .  A
C967        C976   1.400       .  A
S968        H984   1.406       .  S
S970        H981   1.407       .  S
C972        C973   1.402       .  A
C972        S977   1.806       .  S
C973        C974   1.405       .  A
C973        H978   1.083       .  S
C974        C975   1.416       .  A
C975        C976   1.398       .  A
C975        S979   1.803       .  S
C976        H980   1.084       .  S
S977        H982   1.407       .  S
S979        H983   1.407       .  S
C985        C986   1.401       .  A
C985        C990   1.398       .  A
C985        H995   1.086       .  S
C986        C991   1.478       .  S
C986        C987   1.411       .  A
C987        C988   1.400       .  A
C987        S992   1.804       .  S
C988        C989   1.405       .  A
C988        H993   1.085       .  S
C989        C990   1.415       .  A
C990        S994   1.802       .  S
C991        C996   1.408       .  A
C991       C1000   1.401       .  A
S992       H1008   1.405       .  S
S994       H1005   1.407       .  S
C996        C997   1.401       .  A
C996       S1001   1.806       .  S
C997        C998   1.405       .  A
C997       H1002   1.083       .  S
C998        C999   1.416       .  A
C999       C1000   1.400       .  A
C999       S1003   1.803       .  S
C1000      H1004   1.084       .  S
S1001      H1006   1.407       .  S
S1003      H1007   1.407       .  S
C1009      C1010   1.401       .  A
C1009      C1014   1.398       .  A
C1009      H1019   1.084       .  S
C1010      C1015   1.478       .  S
C1010      C1011   1.411       .  A
C1011      C1012   1.400       .  A
C1011      S1016   1.804       .  S
C1012      C1013   1.406       .  A
C1012      H1017   1.084       .  S
C1013      C1014   1.416       .  A
C1014      S1018   1.803       .  S
C1015      C1020   1.408       .  A
C1015      C1024   1.400       .  A
S1016      H1032   1.406       .  S
S1018      H1029   1.408       .  S
C1020      C1021   1.402   1_545  A
C1020      S1025   1.807       .  S
C1021      C1022   1.405       .  A
C1021      H1026   1.083       .  S
C1022      C1023   1.416       .  A
C1023      C1024   1.399   1_565  A
C1023      S1027   1.803       .  S
C1024      H1028   1.084       .  S
S1025      H1030   1.407       .  S
S1027      H1031   1.408       .  S
C1033      C1034   1.401       .  A
C1033      C1038   1.399       .  A
C1033      H1043   1.085       .  S
C1034      C1039   1.479       .  S
C1034      C1035   1.410       .  A
C1035      C1036   1.398       .  A
C1035      S1040   1.803       .  S
C1036      C1037   1.406       .  A
C1036      H1041   1.084       .  S
C1037      C1038   1.418       .  A
C1038      S1042   1.802       .  S
C1039      C1044   1.409       .  A
C1039      C1048   1.401       .  A
S1040      H1056   1.406       .  S
S1042      H1053   1.408       .  S
C1044      C1045   1.403       .  A
C1044      S1049   1.806       .  S
C1045      C1046   1.406       .  A
C1045      H1050   1.083       .  S
C1046      C1047   1.414       .  A
C1047      C1048   1.397       .  A
C1047      S1051   1.803       .  S
C1048      H1052   1.084       .  S
S1049      H1054   1.407       .  S
S1051      H1055   1.407       .  S
C1057      C1058   1.402       .  A
C1057      C1062   1.400       .  A
C1057      H1067   1.085       .  S
C1058      C1063   1.479       .  S
C1058      C1059   1.410       .  A
C1059      C1060   1.397       .  A
C1059      S1064   1.805       .  S
C1060      C1061   1.406       .  A
C1060      H1065   1.084       .  S
C1061      C1062   1.417       .  A
C1062      S1066   1.802       .  S
C1063      C1068   1.409       .  A
C1063      C1072   1.402       .  A
S1064      H1080   1.406       .  S
S1066      H1077   1.408       .  S
C1068      C1069   1.403       .  A
C1068      S1073   1.807       .  S
C1069      C1070   1.405       .  A
C1069      H1074   1.083       .  S
C1070      C1071   1.415       .  A
C1071      C1072   1.398       .  A
C1071      S1075   1.803       .  S
C1072      H1076   1.084       .  S
S1073      H1078   1.407       .  S
S1075      H1079   1.407       .  S
C1081      C1082   1.402   1_554  A
C1081      C1086   1.399   1_545  A
C1081      H1091   1.084       .  S
C1082      C1087   1.479       .  S
C1082      C1083   1.411       .  A
C1083      C1084   1.399   1_545  A
C1083      S1088   1.804       .  S
C1084      C1085   1.404   1_556  A
C1084      H1089   1.084       .  S
C1085      C1086   1.416       .  A
C1086      S1090   1.803       .  S
C1087      C1092   1.409       .  A
C1087      C1096   1.401   1_556  A
S1088      H1104   1.406       .  S
S1090      H1101   1.407       .  S
C1092      C1093   1.403       .  A
C1092      S1097   1.806       .  S
C1093      C1094   1.406   1_556  A
C1093      H1098   1.082       .  S
C1094      C1095   1.415       .  A
C1095      C1096   1.398       .  A
C1095      S1099   1.803       .  S
C1096      H1100   1.083       .  S
S1097      H1102   1.407       .  S
S1099      H1103   1.407       .  S
