geometry optimzed in LAMMPS
_audit_creation_date              2020-12-01 
_audit_creation_method            'lammps2cif' 
_symmetry_space_group_name_H-M    'P1' 
_symmetry_Int_Tables_number       1 
_symmetry_cell_setting            triclinic 
loop_ 
_symmetry_equiv_pos_as_xyz 
  x,y,z 
_cell_length_a                    40.91954618 
_cell_length_b                    41.2414072043029 
_cell_length_c                    61.07441750428457 
_cell_angle_alpha                 89.77961520879043 
_cell_angle_beta                  90.05255638161246 
_cell_angle_gamma                 119.17674363201301 
loop_ 
_atom_site_label 
_atom_site_type_symbol 
_atom_site_fract_x 
_atom_site_fract_y 
_atom_site_fract_z 
_atom_site_charge 
C1          C  0.16848522  0.33206009  0.65631351     0.46000
H2          H  0.16904813  0.33337521  0.67447725    -0.03000
C3          C  0.16737800  0.32941327  0.61372091     0.46100
H4          H  0.16677946  0.32849130  0.59552476    -0.03000
C5          C  0.14862585  0.35209671  0.64554159    -0.16700
C6          C  0.20798715  0.34962487  0.64557827    -0.16500
C7          C  0.14764074  0.29195507  0.64703520    -0.16800
C8          C  0.14840566  0.35021766  0.62305078    -0.16800
C9          C  0.20688259  0.34838838  0.62307741    -0.16400
C10         C  0.14738178  0.29112932  0.62452350    -0.16700
C11         C  0.16560036  0.33150621  0.80412498     0.46000
H12         H  0.16478056  0.33252867  0.78597026    -0.03000
C13         C  0.16790992  0.32958076  0.84667976     0.46100
H14         H  0.16913013  0.32880945  0.86486804    -0.03000
C15         C  0.20592901  0.35218169  0.81365412    -0.16700
C16         C  0.14419741  0.34910484  0.81577878    -0.16500
C17         C  0.14808437  0.29156088  0.81384601    -0.16800
C18         C  0.20622405  0.35057119  0.83611444    -0.16800
C19         C  0.14653470  0.34845724  0.83823285    -0.16400
C20         C  0.14935207  0.29133146  0.83633096    -0.16700
C21         C  0.00202520  0.00147612  0.70910992     0.46000
H22         H  0.00320784  0.00145296  0.69094983    -0.03000
C23         C  0.49986341  0.00125350  0.75181988     0.46100
H24         H  0.49800946  0.00089289  0.76988898    -0.03000
C25         C  0.02229676  0.48212561  0.71995759    -0.16700
C26         C  0.01987781  0.04071920  0.71933973    -0.16500
C27         C  0.46186559  0.48155632  0.71839122    -0.16800
C28         C  0.01945477  0.48042174  0.74254103    -0.16800
C29         C  0.02197501  0.04049848  0.74179574    -0.16400
C30         C  0.46070967  0.48333438  0.74090567    -0.16700
C31         C  0.33606421  0.17552780  0.30227182     0.46000
H32         H  0.33616923  0.17804986  0.28442920    -0.03000
C33         C  0.33745890  0.17129814  0.34466904     0.46100
H34         H  0.33826145  0.17003089  0.36283977    -0.03000
C35         C  0.29651319  0.15384707  0.31288454    -0.16700
C36         C  0.35781405  0.15591052  0.31047456    -0.16500
C37         C  0.35480441  0.21368530  0.31376002    -0.16800
C38         C  0.29806318  0.15229550  0.33548420    -0.16800
C39         C  0.35749892  0.15330231  0.33302326    -0.16400
C40         C  0.35542449  0.21084429  0.33610242    -0.16700
C41         C  0.33143702  0.17099603  0.11296213     0.46000
H42         H  0.32954211  0.17276873  0.09495968    -0.03000
C43         C  0.33439524  0.16752214  0.15542966     0.46100
H44         H  0.33574559  0.16634462  0.17355746    -0.03000
C45         C  0.29374129  0.14445364  0.12328494    -0.16700
C46         C  0.35821137  0.15735106  0.12089565    -0.16500
C47         C  0.34454497  0.20829989  0.12418752    -0.16800
C48         C  0.29475236  0.14259765  0.14582430    -0.16800
C49         C  0.35988592  0.15518073  0.14343125    -0.16400
C50         C  0.34663018  0.20690751  0.14648241    -0.16700
C51         C  0.00097939  0.99808351  0.20713430     0.46000
H52         H  0.00113135  0.99639352  0.18899601    -0.03000
C53         C  0.00139182  0.00302594  0.24978918     0.46100
H54         H  0.00152407  0.00523209  0.26790888    -0.03000
C55         C  0.48434182  0.02231728  0.21583184    -0.16700
C56         C  0.47908809  0.45984553  0.21881601    -0.16500
C57         C  0.04043831  0.01553047  0.21710801    -0.16800
C58         C  0.48457187  0.02474016  0.23831861    -0.16800
C59         C  0.47733222  0.46302510  0.24128508    -0.16400
C60         C  0.04089934  0.01782984  0.23951132    -0.16700
Zn61       Zn  0.02084686  0.46967235  0.99170869     1.49700
Zn62       Zn  0.00153732  0.00015049  0.94847946     1.49400
Zn63       Zn  0.44693257  0.47799769  0.98914040     1.49100
Zn64       Zn  0.02777335  0.05086068  0.98991127     1.49500
O65         O  0.99923892  0.99949655  0.98002270    -1.83600
O66         O  0.03911460  0.44890527  0.96743168    -0.74200
O67         O  0.45121263  0.47992111  0.93521490    -0.74000
O68         O  0.43231625  0.43413974  0.00898119    -0.73500
O69         O  0.02331760  0.46950885  0.93786018    -0.74200
O70         O  0.48297296  0.42725799  0.01004791    -0.73800
O71         O  0.41176137  0.46248505  0.96325884    -0.74400
O72         O  0.49532734  0.06546006  0.00676340    -0.73800
O73         O  0.03298569  0.05095182  0.93637066    -0.74600
O74         O  0.43969648  0.01435139  0.00721355    -0.73900
O75         O  0.05314184  0.08761133  0.96538285    -0.74400
O76         O  0.06690253  0.05589744  0.01107178    -0.74300
O77         O  0.06327523  0.00031501  0.01232361    -0.74100
C78         C  0.03705961  0.45093945  0.94668482     0.77700
C79         C  0.41818898  0.46582438  0.94273678     0.78200
C80         C  0.44967102  0.41766105  0.01599092     0.77100
C81         C  0.46155093  0.04753110  0.01321307     0.77500
C82         C  0.05240527  0.08284444  0.94478420     0.78600
C83         C  0.07745112  0.03382295  0.01873381     0.77700
Zn84       Zn  0.47232032  0.02757347  0.48784388     1.49700
Zn85       Zn  0.47688505  0.45192273  0.48959183     1.49400
Zn86       Zn  0.00420153  0.00363932  0.44798937     1.49100
Zn87       Zn  0.05276046  0.03085393  0.49063234     1.49500
O88         O  0.00152354  0.00347178  0.47936658    -1.83600
O89         O  0.42738366  0.49306932  0.50564860    -0.74200
O90         O  0.45696239  0.41542931  0.46426341    -0.74000
O91         O  0.48142706  0.03123066  0.43464644    -0.73500
O92         O  0.43321725  0.44239495  0.50887976    -0.74200
O93         O  0.45620219  0.04702845  0.46177356    -0.73800
O94         O  0.47717874  0.45321375  0.43556293    -0.74400
O95         O  0.09198427  0.05244876  0.46645240    -0.73800
O96         O  0.01216386  0.44227539  0.50822275    -0.74600
O97         O  0.05615844  0.02850983  0.43728283    -0.73900
O98         O  0.06360820  0.49733734  0.50973073    -0.74400
O99         O  0.05810665  0.07250068  0.50976489    -0.74300
O100        O  0.00279106  0.07021744  0.50774416    -0.74100
C101        C  0.41646954  0.46070877  0.51339573     0.77700
C102        C  0.45909606  0.42083141  0.44361810     0.78200
C103        C  0.46338229  0.04682847  0.44150147     0.77100
C104        C  0.08820464  0.04792480  0.44580828     0.77500
C105        C  0.04514246  0.46333186  0.51539983     0.78600
C106        C  0.03585192  0.08436793  0.51532025     0.77700
C107        C  0.13261795  0.04553486  0.07092769    -0.21900
C108        C  0.16478556  0.07935386  0.06651251     0.10100
C109        C  0.16817929  0.09796218  0.04654218     0.10500
C110        C  0.13913793  0.08213772  0.03126048    -0.16800
C111        C  0.10698472  0.04804736  0.03545688    -0.27200
C112        C  0.10326657  0.02975761  0.05575281     0.18800
C113        C  0.19580674  0.09390494  0.08235269     0.12800
C114        C  0.20249242  0.13445214  0.04138023    -0.11600
H115        H  0.14165758  0.09628562  0.01583630     0.13000
C116        C  0.06847163  0.99467227  0.06247121    -0.22400
H117        H  0.13031308  0.03155082  0.08638886     0.08700
C118        C  0.19747156  0.11631739  0.10011642     0.05000
C119        C  0.22927040  0.13167485  0.11357151    -0.19700
C120        C  0.25955870  0.12546720  0.10938964    -0.11900
C121        C  0.25719820  0.10225859  0.09163609     0.13700
C122        C  0.22515981  0.08658825  0.07854333    -0.22400
C123        C  0.16610440  0.12459494  0.10448949    -0.05500
H124        H  0.23082217  0.14921708  0.12714446     0.15300
C125        C  0.28738114  0.09257472  0.08652020    -0.15600
H126        H  0.22325044  0.06913025  0.06481838     0.09600
H127        H  0.05778073  0.99946601  0.07814745     0.07400
H128        H  0.07537299  0.97199864  0.06491278     0.08600
H129        H  0.04538438  0.98533266  0.05047814     0.07700
H130        H  0.22763005  0.13079828  0.04119680     0.02600
H131        H  0.20616106  0.15529243  0.05398265     0.03000
H132        H  0.20033715  0.14546924  0.02513842     0.06500
H133        H  0.17233854  0.14342899  0.11869498     0.05500
H134        H  0.13992858  0.09834792  0.10798412    -0.00200
H135        H  0.16174941  0.13828171  0.08995413     0.01200
H136        H  0.27862436  0.07107626  0.07358299     0.04900
H137        H  0.29391544  0.08124054  0.10128697     0.06800
H138        H  0.31265242  0.11720531  0.08027949     0.07700
C139        C  0.40615752  0.36540521  0.06856484    -0.21900
C140        C  0.39948635  0.32979186  0.06310823     0.10100
C141        C  0.40814810  0.32268578  0.04192555     0.10500
C142        C  0.42425380  0.35188890  0.02669295    -0.16800
C143        C  0.43135508  0.38771561  0.03220857    -0.27200
C144        C  0.42220584  0.39462964  0.05341667     0.18800
C145        C  0.38540206  0.30085178  0.08025263     0.12800
C146        C  0.40063298  0.28440382  0.03554019    -0.11600
H147        H  0.43141191  0.34682291  0.01045165     0.13000
C148        C  0.43039232  0.43262503  0.06102959    -0.22400
H149        H  0.39971709  0.37063110  0.08496370     0.08700
C150        C  0.41030465  0.29601671  0.09406402     0.05000
C151        C  0.39595358  0.26703086  0.10936407    -0.19700
C152        C  0.35737169  0.24280823  0.11115985    -0.11900
C153        C  0.33237639  0.24904908  0.09815205     0.13700
C154        C  0.34674694  0.27784531  0.08264653    -0.22400
C155        C  0.45203182  0.32074917  0.09220934    -0.05500
H156        H  0.41517399  0.26205220  0.11907025     0.15300
C157        C  0.29057193  0.22615700  0.10041723    -0.15600
H158        H  0.32773201  0.28226719  0.07227496     0.09600
H159        H  0.44899219  0.44064370  0.07557743     0.07400
H160        H  0.40382163  0.43189332  0.06569928     0.08600
H161        H  0.44450707  0.45462348  0.04851214     0.07700
H162        H  0.37028358  0.26444803  0.03718802     0.02600
H163        H  0.41657399  0.27539896  0.04634301     0.03000
H164        H  0.40900374  0.28364122  0.01833693     0.06500
H165        H  0.46742775  0.31294957  0.10423103     0.05500
H166        H  0.45928460  0.35000092  0.09531985    -0.00200
H167        H  0.46158114  0.31860143  0.07554245     0.01200
H168        H  0.27850828  0.24472721  0.10339029     0.04900
H169        H  0.28235905  0.20670807  0.11441684     0.06800
H170        H  0.27841688  0.21018613  0.08516971     0.07700
C171        C  0.41023784  0.14714804  0.07195868    -0.21900
C172        C  0.40240244  0.11046699  0.07467305     0.10100
C173        C  0.38161614  0.08960646  0.09286663     0.10500
C174        C  0.36809133  0.10585244  0.10780146    -0.16800
C175        C  0.37541626  0.14266202  0.10511315    -0.27200
C176        C  0.39722924  0.16375354  0.08698023     0.18800
C177        C  0.41739015  0.09491030  0.05849644     0.12800
C178        C  0.37362892  0.05024978  0.09641371    -0.11600
H179        H  0.35103405  0.08945179  0.12143650     0.13000
C180        C  0.40895080  0.20417845  0.08373801    -0.22400
H181        H  0.42693832  0.16290257  0.05803065     0.08700
C182        C  0.39739322  0.07749004  0.03936445     0.05000
C183        C  0.41275210  0.06258487  0.02466249    -0.19700
C184        C  0.44763001  0.06500598  0.02875702    -0.11900
C185        C  0.46750552  0.08241036  0.04813500     0.13700
C186        C  0.45227903  0.09774235  0.06254420    -0.22400
C187        C  0.35993478  0.07460601  0.03459848    -0.05500
H188        H  0.39752958  0.04899471  0.00991698     0.15300
C189        C  0.00361580  0.08372519  0.05497526    -0.15600
H190        H  0.46721309  0.11108633  0.07742642     0.09600
H191        H  0.42831975  0.21639622  0.06962241     0.07400
H192        H  0.42404614  0.21996574  0.09842022     0.08600
H193        H  0.38458500  0.20805700  0.08028148     0.07700
H194        H  0.40035793  0.04967935  0.09812072     0.02600
H195        H  0.35780411  0.03285068  0.08226106     0.03000
H196        H  0.35680425  0.03788527  0.11146269     0.06500
H197        H  0.34800571  0.55999690  0.01893179     0.05500
H198        H  0.36301631  0.10283615  0.03343043    -0.00200
H199        H  0.33990756  0.05898426  0.04793533     0.01200
H200        H  0.02641118  0.11303968  0.05536982     0.04900
H201        H  0.01230141  0.06772991  0.04426875     0.06800
H202        H  0.00024684  0.07166066  0.07165524     0.07700
C203        C  0.36331175  0.29505491  0.17566590    -0.21900
C204        C  0.40262968  0.31450011  0.17642514     0.10100
C205        C  0.42263889  0.29658604  0.16909420     0.10500
C206        C  0.40289951  0.25961531  0.16200899    -0.16800
C207        C  0.36390168  0.24121117  0.15987060    -0.27200
C208        C  0.34379493  0.25921830  0.16664695     0.18800
C209        C  0.42237176  0.35240067  0.18625928     0.12800
C210        C  0.46476432  0.31700351  0.16722701    -0.11600
H211        H  0.41819413  0.24590199  0.15641961     0.13000
C212        C  0.30200149  0.24183377  0.16411645    -0.22400
H213        H  0.34773424  0.30817879  0.18171145     0.08700
C214        C  0.42132291  0.38359979  0.17728979     0.05000
C215        C  0.44086007  0.41840477  0.18783536    -0.19700
C216        C  0.46229877  0.42313589  0.20682072    -0.11900
C217        C  0.46559752  0.39206921  0.21434569     0.13700
C218        C  0.44399014  0.35721025  0.20486907    -0.22400
C219        C  0.40028392  0.38047927  0.15645534    -0.05500
H220        H  0.43873477  0.44179950  0.18143340     0.15300
C221        C  0.49286802  0.39403101  0.23141066    -0.15600
H222        H  0.44504569  0.33343833  0.21175719     0.09600
H223        H  0.28937145  0.21426252  0.15617751     0.07400
H224        H  0.29533296  0.26009815  0.15383380     0.08600
H225        H  0.28885869  0.23849493  0.18046534     0.07700
H226        H  0.47799592  0.32480462  0.18357958     0.02600
H227        H  0.47388668  0.34239953  0.15709670     0.03000
H228        H  0.47528927  0.29969955  0.15926121     0.06500
H229        H  0.40381434  0.40781655  0.15119401     0.05500
H230        H  0.36994458  0.36140755  0.15883745    -0.00200
H231        H  0.41084400  0.36976511  0.14313306     0.01200
H232        H  0.47775590  0.37488087  0.24516141     0.04900
H233        H  0.50959725  0.42199161  0.23775902     0.06800
H234        H  0.51243785  0.38559277  0.22411613     0.07700
C235        C  0.43413133  0.12736359  0.15703360    -0.21900
C236        C  0.41494981  0.09829021  0.17202612     0.10100
C237        C  0.38018234  0.09237006  0.18039530     0.10500
C238        C  0.36303390  0.11167854  0.17107739    -0.16800
C239        C  0.38138921  0.13937566  0.15509487    -0.27200
C240        C  0.41877335  0.14926875  0.14951647     0.18800
C241        C  0.43428086  0.07824471  0.18086023     0.12800
C242        C  0.36252490  0.06795581  0.20016587    -0.11600
H243        H  0.33517263  0.10509060  0.17632956     0.13000
C244        C  0.44396552  0.18379015  0.13668480    -0.22400
H245        H  0.46208454  0.13406896  0.15185815     0.08700
C246        C  0.42102412  0.03987414  0.17745326     0.05000
C247        C  0.43832014  0.02213122  0.18856190    -0.19700
C248        C  0.47033066  0.04245288  0.20149228    -0.11900
C249        C  0.48664041  0.08166317  0.20194886     0.13700
C250        C  0.46777657  0.09877271  0.19235965    -0.22400
C251        C  0.39041682  0.01824213  0.16112519    -0.05500
H252        H  0.42661732  0.49234462  0.18731298     0.15300
C253        C  0.02436956  0.10659447  0.21183680    -0.15600
H254        H  0.47943783  0.12858624  0.19384731     0.09600
H255        H  0.45213172  0.17617063  0.12100794     0.07400
H256        H  0.46969050  0.20112762  0.14630578     0.08600
H257        H  0.43070740  0.20113910  0.13337533     0.07700
H258        H  0.38251795  0.07836798  0.21405400     0.02600
H259        H  0.35520685  0.03883519  0.19695325     0.03000
H260        H  0.33657860  0.06814951  0.20527965     0.06500
H261        H  0.38428311  0.48892394  0.16006420     0.05500
H262        H  0.39945820  0.03108623  0.14467021    -0.00200
H263        H  0.36413850  0.01813785  0.16545223     0.01200
H264        H  0.03715875  0.09101368  0.21935741     0.04900
H265        H  0.04366395  0.12477087  0.19886294     0.06800
H266        H  0.52170390  0.12453097  0.22438178     0.07700
C267        C  0.13587103  0.03499079  0.19675817    -0.21900
C268        C  0.14901848  0.06967945  0.18668291     0.10100
C269        C  0.12377106  0.08347051  0.18319492     0.10500
C270        C  0.08773525  0.06459759  0.19260178    -0.16800
C271        C  0.07554644  0.03092519  0.20389012    -0.27200
C272        C  0.09911060  0.01481499  0.20443920     0.18800
C273        C  0.18792017  0.08825810  0.17792872     0.12800
C274        C  0.13355470  0.11617645  0.16830830    -0.11600
H275        H  0.06900752  0.07604082  0.19106371     0.13000
C276        C  0.08595014  0.97574109  0.21194674    -0.22400
H277        H  0.15424351  0.02303277  0.19814087     0.08700
C278        C  0.21676004  0.12200250  0.18647654     0.05000
C279        C  0.25237600  0.13868230  0.17651258    -0.19700
C280        C  0.26049748  0.12083273  0.15951222    -0.11900
C281        C  0.23368453  0.08384189  0.15433262     0.13700
C282        C  0.19722743  0.06902073  0.16248376    -0.22400
C283        C  0.21095047  0.13892579  0.20694160    -0.05500
H284        H  0.27378418  0.16570031  0.18197386     0.15300
C285        C  0.24310166  0.05872306  0.14118113    -0.15600
H286        H  0.17614840  0.04156544  0.15730529     0.09600
H287        H  0.10434809  0.97561599  0.22520365     0.07400
H288        H  0.08757986  0.95924876  0.19808222     0.08600
H289        H  0.05670444  0.96217125  0.21760293     0.07700
H290        H  0.13972234  0.10968827  0.15172943     0.02600
H291        H  0.15829826  0.14155276  0.17424127     0.03000
H292        H  0.11004306  0.12230757  0.16687680     0.06500
H293        H  0.23697536  0.16426441  0.21189157     0.05500
H294        H  0.20259618  0.11845119  0.22052396    -0.00200
H295        H  0.18881940  0.14666035  0.20474913     0.01200
H296        H  0.23644594  0.03350180  0.15097002     0.04900
H297        H  0.27328001  0.07210658  0.13710466     0.06800
H298        H  0.22617340  0.05002545  0.12596470     0.07700
C299        C  0.18140502  0.11456995  0.41850173    -0.21900
C300        C  0.17681150  0.09685586  0.39827394     0.10100
C301        C  0.14414939  0.06294529  0.39426465     0.10500
C302        C  0.11683058  0.04736945  0.41050993    -0.16800
C303        C  0.12075244  0.06499569  0.43073928    -0.27200
C304        C  0.15361755  0.09916618  0.43483185     0.18800
C305        C  0.20775137  0.11218457  0.38216664     0.12800
C306        C  0.13754683  0.04344460  0.37263444    -0.11600
H307        H  0.09184789  0.02122857  0.40720169     0.13000
C308        C  0.15925792  0.12001417  0.45593864    -0.22400
H309        H  0.20686955  0.14044137  0.42149917     0.08700
C310        C  0.21380209  0.14123136  0.36759217     0.05000
C311        C  0.24281554  0.15321200  0.35206229    -0.19700
C312        C  0.26577397  0.13674742  0.35094287    -0.11900
C313        C  0.25930918  0.10747481  0.36558187     0.13700
C314        C  0.23043962  0.09566844  0.38096542    -0.22400
C315        C  0.18958111  0.15931771  0.36841791    -0.05500
H316        H  0.24800995  0.17582755  0.34098224     0.15300
C317        C  0.28168614  0.08748499  0.36468000    -0.15600
H318        H  0.22522873  0.07310617  0.39210879     0.09600
H319        H  0.18591822  0.14676879  0.45589571     0.07400
H320        H  0.16025988  0.10316909  0.46987192     0.08600
H321        H  0.13601747  0.12626743  0.45839478     0.07700
H322        H  0.15995298  0.03627844  0.36944938     0.02600
H323        H  0.13713372  0.06196413  0.35954701     0.03000
H324        H  0.11033083  0.51728462  0.37220833     0.06500
H325        H  0.19791234  0.18141978  0.35579210     0.05500
H326        H  0.19206072  0.17207770  0.38473711    -0.00200
H327        H  0.15993061  0.13818460  0.36552401     0.01200
H328        H  0.31090031  0.10630318  0.36966055     0.04900
H329        H  0.28061082  0.07708598  0.34787273     0.06800
H330        H  0.27049064  0.06323818  0.37596856     0.07700
C331        C  0.42063479  0.29610509  0.36899365    -0.21900
C332        C  0.39497663  0.29881942  0.38297820     0.10100
C333        C  0.35649920  0.27319435  0.38127083     0.10500
C334        C  0.34449505  0.24511226  0.36552656    -0.16800
C335        C  0.37015874  0.24222752  0.35157770    -0.27200
C336        C  0.40878456  0.26758791  0.35356092     0.18800
C337        C  0.40928589  0.32878273  0.39933772     0.12800
C338        C  0.32831292  0.27525339  0.39621108    -0.11600
H339        H  0.31496656  0.22519436  0.36410755     0.13000
C340        C  0.43827820  0.26447925  0.34046529    -0.22400
H341        H  0.45021477  0.31580897  0.37055659     0.08700
C342        C  0.42491094  0.32560595  0.41927140     0.05000
C343        C  0.44008508  0.35574656  0.43374171    -0.19700
C344        C  0.44047327  0.38909456  0.42847807    -0.11900
C345        C  0.42374690  0.39172575  0.40863317     0.13700
C346        C  0.40831816  0.36138890  0.39435763    -0.22400
C347        C  0.42572435  0.29050225  0.42514645    -0.05500
H348        H  0.45263977  0.35362658  0.44893310     0.15300
C349        C  0.42122869  0.42592834  0.40247165    -0.15600
H350        H  0.39591496  0.36322360  0.37902585     0.09600
H351        H  0.45886397  0.26312512  0.35176277     0.07400
H352        H  0.45302177  0.28918965  0.32967452     0.08600
H353        H  0.42661305  0.23916248  0.33030409     0.07700
H354        H  0.32895282  0.30227103  0.39392664     0.02600
H355        H  0.33506815  0.27261143  0.41351240     0.03000
H356        H  0.29941796  0.25272167  0.39281608     0.06500
H357        H  0.43865416  0.29253415  0.44143942     0.05500
H358        H  0.44223220  0.28493082  0.41278964    -0.00200
H359        H  0.39674155  0.26678737  0.42557583     0.01200
H360        H  0.44955248  0.44961272  0.39928686     0.04900
H361        H  0.40750200  0.43306480  0.41584454     0.06800
H362        H  0.40453397  0.42160929  0.38733666     0.07700
C363        C  0.45754345  0.09779669  0.39115265    -0.21900
C364        C  0.42122052  0.09231999  0.39321732     0.10100
C365        C  0.39912014  0.07317624  0.41150810     0.10500
C366        C  0.41398785  0.05954252  0.42745818    -0.16800
C367        C  0.45018735  0.06429683  0.42524761    -0.27200
C368        C  0.47246518  0.08407044  0.40695012     0.18800
C369        C  0.40750717  0.10853328  0.37653137     0.12800
C370        C  0.35999154  0.06731182  0.41415418    -0.11600
H371        H  0.39698725  0.04434788  0.44141784     0.13000
C372        C  0.51232207  0.09188734  0.40420719    -0.22400
H373        H  0.47428082  0.11305192  0.37711687     0.08700
C374        C  0.41726809  0.14627028  0.37737354     0.05000
C375        C  0.40140564  0.16000149  0.36227420    -0.19700
C376        C  0.37589880  0.13686088  0.34645614    -0.11900
C377        C  0.36704998  0.09911724  0.34516239     0.13700
C378        C  0.38342998  0.08558951  0.36018115    -0.22400
C379        C  0.44362872  0.17177415  0.39455536    -0.05500
H380        H  0.40834955  0.18891338  0.36309291     0.15300
C381        C  0.33962668  0.07192297  0.32898910    -0.15600
H382        H  0.37640529  0.05662395  0.35963569     0.09600
H383        H  0.52879543  0.10581329  0.41906470     0.07400
H384        H  0.52620895  0.11039228  0.38997146     0.08600
H385        H  0.51303261  0.06570624  0.40131514     0.07700
H386        H  0.34234858  0.05087898  0.40020555     0.02600
H387        H  0.36072336  0.09457136  0.41459383     0.03000
H388        H  0.34670990  0.05210491  0.42952119     0.06500
H389        H  0.44772077  0.20037058  0.39303330     0.05500
H390        H  0.47138193  0.17337926  0.39284567    -0.00200
H391        H  0.43220300  0.16106625  0.41111596     0.01200
H392        H  0.35452306  0.06247820  0.31770131     0.04900
H393        H  0.32508132  0.08360203  0.31917567     0.06800
H394        H  0.31780072  0.04736423  0.33787566     0.07700
C395        C  0.41266943  0.30010535  0.27899685    -0.21900
C396        C  0.39861453  0.32325336  0.28611228     0.10100
C397        C  0.36833414  0.30932217  0.30089745     0.10500
C398        C  0.35340969  0.27279407  0.30869171    -0.16800
C399        C  0.36835022  0.24996070  0.30229879    -0.27200
C400        C  0.39785948  0.26351970  0.28685199     0.18800
C401        C  0.41608029  0.36188510  0.27764604     0.12800
C402        C  0.35249112  0.33330391  0.30891646    -0.11600
H403        H  0.33041056  0.26217593  0.32026747     0.13000
C404        C  0.41460864  0.24018938  0.27899278    -0.22400
H405        H  0.43562289  0.31094196  0.26737864     0.08700
C406        C  0.45114053  0.38968923  0.28532048     0.05000
C407        C  0.46877940  0.42445046  0.27477343    -0.19700
C408        C  0.45291695  0.43124736  0.25609753    -0.11900
C409        C  0.41532504  0.40536441  0.25073383     0.13700
C410        C  0.39781856  0.37057176  0.26113835    -0.22400
C411        C  0.47038885  0.38227986  0.30417050    -0.05500
H412        H  0.99593393  0.44533813  0.28037433     0.15300
C413        C  0.39262270  0.41371776  0.23451862    -0.15600
H414        H  0.37001063  0.34984398  0.25605298     0.09600
H415        H  0.43883373  0.25614918  0.26793861     0.07400
H416        H  0.39354692  0.21601876  0.26966439     0.08600
H417        H  0.42457383  0.23027622  0.29302137     0.07700
H418        H  0.34121604  0.34201913  0.29492025     0.02600
H419        H  0.37480289  0.35833158  0.31709887     0.03000
H420        H  0.32942514  0.31830879  0.32085730     0.06500
H421        H  0.99746497  0.40713430  0.30822901     0.05500
H422        H  0.47614342  0.35938695  0.29995607    -0.00200
H423        H  0.45219321  0.37431086  0.31890975     0.01200
H424        H  0.38368248  0.39356651  0.22082834     0.04900
H425        H  0.40811306  0.44228808  0.22779484     0.06800
H426        H  0.36724558  0.41101201  0.24277679     0.07700
C427        C  0.46968756  0.09823719  0.26712671    -0.21900
C428        C  0.43048278  0.08158945  0.26822376     0.10100
C429        C  0.40907110  0.04466460  0.26018571     0.10500
C430        C  0.42747274  0.02746723  0.24994126    -0.16800
C431        C  0.46659176  0.04348720  0.25042048    -0.27200
C432        C  0.48742731  0.07801740  0.26101093     0.18800
C433        C  0.41350238  0.10352966  0.27792384     0.12800
C434        C  0.36726605  0.02156160  0.26297083    -0.11600
H435        H  0.41107477  0.50041917  0.24250528     0.13000
C436        C  0.02762990  0.09351719  0.26747903    -0.22400
H437        H  0.48685933  0.12652088  0.27267214     0.08700
C438        C  0.42868724  0.12625625  0.29671826     0.05000
C439        C  0.41398256  0.14887533  0.30356365    -0.19700
C440        C  0.37909213  0.14304880  0.29605735    -0.11900
C441        C  0.36350510  0.12037897  0.27733779     0.13700
C442        C  0.38257403  0.10337322  0.26765374    -0.22400
C443        C  0.45759370  0.12493381  0.31155190    -0.05500
H444        H  0.42753864  0.16785250  0.31698836     0.15300
C445        C  0.32597290  0.11173262  0.26810898    -0.15600
H446        H  0.37179879  0.08793146  0.25264075     0.09600
H447        H  0.04590043  0.11915319  0.25812762     0.07400
H448        H  0.03073839  0.10035778  0.28519650     0.08600
H449        H  0.03676729  0.07281323  0.26537902     0.07700
H450        H  0.35335988  0.01730760  0.24679908     0.02600
H451        H  0.35551996  0.03380106  0.27452945     0.03000
H452        H  0.36039561  0.49403541  0.26992882     0.06500
H453        H  0.44797498  0.12168663  0.32882428     0.05500
H454        H  0.48451350  0.15123573  0.31008912    -0.00200
H455        H  0.46197082  0.10093747  0.30831664     0.01200
H456        H  0.32770519  0.13661104  0.26005808     0.04900
H457        H  0.30454254  0.10148786  0.28127129     0.06800
H458        H  0.31641990  0.08974691  0.25542818     0.07700
C459        C  0.12951843  0.03862354  0.27118266    -0.21900
C460        C  0.14826162  0.07762466  0.27247863     0.10100
C461        C  0.13044074  0.09656946  0.26307911     0.10500
C462        C  0.09723270  0.07637119  0.25111950    -0.16800
C463        C  0.07691389  0.03743504  0.25200044    -0.27200
C464        C  0.09303009  0.01852818  0.26306428     0.18800
C465        C  0.18660532  0.09716179  0.28270358     0.12800
C466        C  0.14380084  0.13737186  0.26626117    -0.11600
H467        H  0.08597554  0.09132838  0.24206245     0.13000
C468        C  0.07274814  0.47746068  0.26703321    -0.22400
H469        H  0.14291370  0.02324055  0.27712525     0.08700
C470        C  0.19625418  0.08258810  0.30116818     0.05000
C471        C  0.23350758  0.09907530  0.30800778    -0.19700
C472        C  0.26049539  0.13409777  0.30032961    -0.11900
C473        C  0.25096647  0.14971194  0.28235067     0.13700
C474        C  0.21514641  0.12967081  0.27291777    -0.22400
C475        C  0.16815939  0.05180338  0.31548540    -0.05500
H476        H  0.24066671  0.08561334  0.32091251     0.15300
C477        C  0.27692863  0.18794727  0.27349592    -0.15600
H478        H  0.20916219  0.14036791  0.25815455     0.09600
H479        H  0.06847647  0.47195704  0.28490693     0.07400
H480        H  0.08913480  0.46452872  0.26082211     0.08600
H481        H  0.04544229  0.46444472  0.25908134     0.07700
H482        H  0.15426347  0.15238309  0.25048267     0.02600
H483        H  0.16571135  0.15009150  0.27897550     0.03000
H484        H  0.12008048  0.14112431  0.27195295     0.06500
H485        H  0.17512554  0.06003846  0.33280440     0.05500
H486        H  0.16982437  0.02603044  0.31284955    -0.00200
H487        H  0.13915283  0.04654211  0.31299845     0.01200
H488        H  0.29947165  0.18773257  0.26362124     0.04900
H489        H  0.28868247  0.20814042  0.28711201     0.06800
H490        H  0.26196550  0.19778898  0.26244914     0.07700
C491        C  0.08841083  0.20417015  0.86941424    -0.21900
C492        C  0.11557352  0.20256555  0.88259302     0.10100
C493        C  0.15373300  0.22804028  0.87928954     0.10500
C494        C  0.16376867  0.25583325  0.86339723    -0.16800
C495        C  0.13655616  0.25819596  0.85054150    -0.27200
C496        C  0.09835548  0.23160069  0.85331380     0.18800
C497        C  0.10305464  0.17381546  0.89976227     0.12800
C498        C  0.18365762  0.22634211  0.89280979    -0.11600
H499        H  0.19299235  0.27626846  0.86119640     0.13000
C500        C  0.06720402  0.23163277  0.84024802    -0.22400
H501        H  0.05913271  0.18409518  0.87193854     0.08700
C502        C  0.08852103  0.17798236  0.91982856     0.05000
C503        C  0.07384874  0.14840435  0.93483239    -0.19700
C504        C  0.07352239  0.11493054  0.93012008    -0.11900
C505        C  0.09058471  0.11198457  0.91056534     0.13700
C506        C  0.10436299  0.14123745  0.89543847    -0.22400
C507        C  0.08805491  0.21339374  0.92519503    -0.05500
H508        H  0.06123152  0.15089523  0.94988109     0.15300
C509        C  0.09575693  0.07907508  0.90521904    -0.15600
H510        H  0.11629569  0.13866473  0.88012197     0.09600
H511        H  0.04818775  0.23593773  0.85134579     0.07400
H512        H  0.05108905  0.20452769  0.83183780     0.08600
H513        H  0.07738758  0.25341996  0.82759039     0.07700
H514        H  0.18268424  0.19924315  0.89029193     0.02600
H515        H  0.17909088  0.22947796  0.91041239     0.03000
H516        H  0.21207488  0.24871015  0.88822175     0.06500
H517        H  0.57610308  0.21218124  0.94169388     0.05500
H518        H  0.07085897  0.21842687  0.91301181    -0.00200
H519        H  0.11706153  0.23708820  0.92486997     0.01200
H520        H  0.07821717  0.06415509  0.89088196     0.04900
H521        H  0.08897952  0.05936447  0.91903021     0.06800
H522        H  0.12557087  0.08894864  0.90107309     0.07700
C523        C  0.29695992  0.37750610  0.86625199    -0.21900
C524        C  0.29773890  0.40444252  0.88048994     0.10100
C525        C  0.26959486  0.41465436  0.87942141     0.10500
C526        C  0.24076982  0.39718120  0.86419855    -0.16800
C527        C  0.23944555  0.36967608  0.85021463    -0.27200
C528        C  0.26766164  0.35939870  0.85129576     0.18800
C529        C  0.32760975  0.42063796  0.89697070     0.12800
C530        C  0.26957150  0.44332046  0.89463294    -0.11600
H531        H  0.21873882  0.40453984  0.86342723     0.13000
C532        C  0.26690435  0.32854194  0.83778912    -0.22400
H533        H  0.31867792  0.36971478  0.86735650     0.08700
C534        C  0.32479236  0.40233681  0.91698206     0.05000
C535        C  0.35433430  0.41841243  0.93197796    -0.19700
C536        C  0.38673644  0.45200286  0.92716078    -0.11900
C537        C  0.38900671  0.47071891  0.90720760     0.13700
C538        C  0.35920301  0.45472518  0.89238408    -0.22400
C539        C  0.29073656  0.36579320  0.92237518    -0.05500
H540        H  0.35260772  0.40412946  0.94723098     0.15300
C541        C  0.42221153  0.50782440  0.90155729    -0.15600
H542        H  0.36062838  0.46859511  0.87700762     0.09600
H543        H  0.26755759  0.30739243  0.84881262     0.07400
H544        H  0.29182449  0.33997705  0.82691751     0.08600
H545        H  0.24148878  0.31413232  0.82753955     0.07700
H546        H  0.29544391  0.47029266  0.89214662     0.02600
H547        H  0.26836934  0.43420587  0.91188286     0.03000
H548        H  0.24515093  0.44762360  0.89169683     0.06500
H549        H  0.29300127  0.35534444  0.93877994     0.05500
H550        H  0.28733998  0.34464797  0.91005675    -0.00200
H551        H  0.26542309  0.36916353  0.92227146     0.01200
H552        H  0.44750349  0.50490011  0.89910722     0.04900
H553        H  0.42723405  0.02796588  0.91488165     0.06800
H554        H  0.41761611  0.01947288  0.88616492     0.07700
C555        C  0.12564727  0.41363698  0.87194141    -0.21900
C556        C  0.10063740  0.38862731  0.88736558     0.10100
C557        C  0.09056786  0.35080127  0.88645263     0.10500
C558        C  0.10557184  0.33869015  0.86987931    -0.16800
C559        C  0.13024008  0.36350608  0.85417748    -0.27200
C560        C  0.14130643  0.40170862  0.85557534     0.18800
C561        C  0.08380244  0.40241709  0.90360888     0.12800
C562        C  0.06408743  0.32333194  0.90295528    -0.11600
H563        H  0.09794221  0.30957767  0.86908971     0.13000
C564        C  0.17067240  0.43083486  0.84095151    -0.22400
H565        H  0.13345047  0.44277487  0.87292914     0.08700
C566        C  0.10151534  0.41803808  0.92364644     0.05000
C567        C  0.08493435  0.43249100  0.93788386    -0.19700
C568        C  0.05142311  0.43205712  0.93225528    -0.11900
C569        C  0.03314166  0.41509154  0.91240763     0.13700
C570        C  0.04965880  0.40046700  0.89838251    -0.22400
C571        C  0.13800310  0.41980654  0.92979339    -0.05500
H572        H  0.09881414  0.44528309  0.95309969     0.15300
C573        C  0.99590467  0.41153481  0.90598877    -0.15600
H574        H  0.03619401  0.38789855  0.88302548     0.09600
H575        H  0.19327422  0.45227466  0.85117865     0.07400
H576        H  0.15789028  0.44427078  0.83095222     0.08600
H577        H  0.18404968  0.41959173  0.82985543     0.07700
H578        H  0.03660195  0.32252278  0.90211402     0.02600
H579        H  0.07576462  0.33164436  0.91968591     0.03000
H580        H  0.05942653  0.29484583  0.89990820     0.06500
H581        H  0.14806607  0.43289900  0.94605301     0.05500
H582        H  0.15973756  0.43638227  0.91743424    -0.00200
H583        H  0.13437703  0.39133712  0.93045928     0.01200
H584        H  0.98451725  0.89464718  0.89094472     0.04900
H585        H  0.99893456  0.93928905  0.90252773     0.06800
H586        H  0.97525358  0.39773247  0.91935263     0.07700
C587        C  0.29092541  0.37753165  0.77686687    -0.21900
C588        C  0.31530912  0.41374905  0.78393967     0.10100
C589        C  0.30210790  0.43082992  0.79882380     0.10500
C590        C  0.26508692  0.41100996  0.80652859    -0.16800
C591        C  0.24125982  0.37373222  0.80067957    -0.27200
C592        C  0.25439220  0.35704957  0.78526299     0.18800
C593        C  0.35396814  0.43363213  0.77478853     0.12800
C594        C  0.32750464  0.46935580  0.80732801    -0.11600
H595        H  0.25518308  0.42414575  0.81810240     0.13000
C596        C  0.23191772  0.31735414  0.77797248    -0.22400
H597        H  0.30089976  0.36470958  0.76510013     0.08700
C598        C  0.38184809  0.42434450  0.78060731     0.05000
C599        C  0.41701550  0.44235463  0.77008052    -0.19700
C600        C  0.42488753  0.46923659  0.75370470    -0.11900
C601        C  0.39720430  0.47970506  0.74883073     0.13700
C602        C  0.36231809  0.46158736  0.75930504    -0.22400
C603        C  0.37443635  0.39545237  0.79790934    -0.05500
H604        H  0.43794148  0.43435491  0.77403721     0.15300
C605        C  0.40266895  0.50968602  0.73276458    -0.15600
H606        H  0.34099319  0.46890579  0.75500724     0.09600
H607        H  0.24724763  0.30213448  0.78209365     0.07400
H608        H  0.22771921  0.31648984  0.75997558     0.08600
H609        H  0.20429715  0.30253654  0.78581053     0.07700
H610        H  0.33704257  0.48970966  0.79365358     0.02600
H611        H  0.35221573  0.47015332  0.81540115     0.03000
H612        H  0.31311521  0.47796321  0.81952370     0.06500
H613        H  0.39940438  0.39208898  0.80087657     0.05500
H614        H  0.35111428  0.36818506  0.79273390    -0.00200
H615        H  0.36681738  0.40376097  0.81354365     0.01200
H616        H  0.38044828  0.49804275  0.72008506     0.04900
H617        H  0.42975984  0.52185493  0.72430728     0.06800
H618        H  0.40072963  0.53229093  0.74144658     0.06300
C619        C  0.06812529  0.37249018  0.79882276    -0.21900
C620        C  0.08795136  0.40229127  0.78452904     0.10100
C621        C  0.12547335  0.41295528  0.77928047     0.10500
C622        C  0.14263838  0.39408130  0.78903573    -0.16800
C623        C  0.12315116  0.36495260  0.80398827    -0.27200
C624        C  0.08485123  0.35321722  0.80827254     0.18800
C625        C  0.06826901  0.42111734  0.77488370     0.12800
C626        C  0.14723930  0.44411633  0.76335719    -0.11600
H627        H  0.17174188  0.40284615  0.78551923     0.13000
C628        C  0.06009287  0.31982259  0.82203771    -0.22400
H629        H  0.03906641  0.36387637  0.80243639     0.08700
C630        C  0.04153756  0.40434368  0.75815159     0.05000
C631        C  0.02354193  0.42306359  0.74955816    -0.19700
C632        C  0.03304039  0.45917900  0.75632680    -0.11900
C633        C  0.05867968  0.47527298  0.77392482     0.13700
C634        C  0.07582240  0.45584391  0.78296261    -0.22400
C635        C  0.03320008  0.36741726  0.74866558    -0.05500
H636        H  0.00322250  0.41016868  0.73656848     0.15300
C637        C  0.06975999  0.51334399  0.78275574    -0.15600
H638        H  0.09584210  0.46807455  0.79617119     0.09600
H639        H  0.03611292  0.29964972  0.81206122     0.07400
H640        H  0.04918784  0.32844640  0.83621490     0.08600
H641        H  0.07482061  0.30538398  0.82823631     0.07700
H642        H  0.14957545  0.47035466  0.76968414     0.02600
H643        H  0.13270188  0.43756867  0.74729348     0.03000
H644        H  0.17598050  0.44850341  0.76076951     0.06500
H645        H  0.01259277  0.35893596  0.73509381     0.05500
H646        H  0.02150229  0.34556518  0.76150400    -0.00200
H647        H  0.05934062  0.36925483  0.74207037     0.01200
H648        H  0.04576588  0.51321409  0.79117744     0.04900
H649        H  0.08001881  0.53423409  0.76943417     0.06800
H650        H  0.09259057  0.02235439  0.79501119     0.07700
C651        C  0.08799739  0.20780754  0.77764787    -0.21900
C652        C  0.10073823  0.18337116  0.78436993     0.10100
C653        C  0.13181535  0.19618154  0.79847233     0.10500
C654        C  0.14866319  0.23284412  0.80604140    -0.16800
C655        C  0.13402622  0.25656350  0.80090128    -0.27200
C656        C  0.10374389  0.24404543  0.78597247     0.18800
C657        C  0.08183184  0.14491419  0.77576831     0.12800
C658        C  0.14622584  0.17078546  0.80629288    -0.11600
H659        H  0.17248056  0.24259654  0.81695824     0.13000
C660        C  0.08572323  0.26679868  0.77924314    -0.22400
H661        H  0.06465403  0.19804353  0.76634791     0.08700
C662        C  0.04588126  0.11784815  0.78287358     0.05000
C663        C  0.02801896  0.08291462  0.77257927    -0.19700
C664        C  0.04498183  0.07491557  0.75496931    -0.11900
C665        C  0.08256801  0.10129172  0.74932446     0.13700
C666        C  0.10005711  0.13588594  0.75961911    -0.22400
C667        C  0.02630545  0.12607017  0.80110667    -0.05500
H668        H  0.49979273  0.06269928  0.77736694     0.15300
C669        C  0.10589137  0.09459785  0.73279471    -0.15600
H670        H  0.12807698  0.15646184  0.75463296     0.09600
H671        H  0.05552281  0.25161990  0.78354448     0.07400
H672        H  0.08856722  0.27148746  0.76126693     0.08600
H673        H  0.09793194  0.29397627  0.78733926     0.07700
H674        H  0.15633631  0.16119929  0.79220709     0.02600
H675        H  0.12343318  0.14635360  0.81476309     0.03000
H676        H  0.16981644  0.18495153  0.81797314     0.06500
H677        H  0.49869311  0.10169979  0.80494984     0.05500
H678        H  0.02159639  0.14946948  0.79636425    -0.00200
H679        H  0.04377072  0.13365700  0.81612963     0.01200
H680        H  0.11622780  0.11676588  0.72010913     0.04900
H681        H  0.09050031  0.06782303  0.72439638     0.06800
H682        H  0.13038991  0.09532763  0.74110117     0.07700
C683        C  0.11601663  0.19839139  0.59596175    -0.21900
C684        C  0.09232868  0.20004624  0.58001076     0.10100
C685        C  0.08463982  0.22979470  0.57980712     0.10500
C686        C  0.10184242  0.25798245  0.59531860    -0.16800
C687        C  0.12714939  0.25753533  0.61069187    -0.27200
C688        C  0.13428438  0.22713207  0.61104340     0.18800
C689        C  0.07773820  0.17139202  0.56288889     0.12800
C690        C  0.05939371  0.23247543  0.56277957    -0.11600
H691        H  0.09631507  0.28114111  0.59505158     0.13000
C692        C  0.16245037  0.22473063  0.62584009    -0.22400
H693        H  0.12170282  0.17530185  0.59592795     0.08700
C694        C  0.10098617  0.17154430  0.54581346     0.05000
C695        C  0.08627860  0.14311237  0.53026570    -0.19700
C696        C  0.04880149  0.11487746  0.53129100    -0.11900
C697        C  0.02537831  0.11517694  0.54829402     0.13700
C698        C  0.04032096  0.14348346  0.56395189    -0.22400
C699        C  0.14117170  0.20182599  0.54391863    -0.05500
H700        H  0.10414179  0.14289063  0.51723264     0.15300
C701        C  0.98517267  0.08510687  0.55064884    -0.15600
H702        H  0.02290912  0.14372888  0.57725142     0.09600
H703        H  0.18371621  0.22218694  0.61581986     0.07400
H704        H  0.14812270  0.19993787  0.63656647     0.08600
H705        H  0.17748209  0.24933045  0.63624613     0.07700
H706        H  0.03086190  0.20824320  0.56420045     0.02600
H707        H  0.07065859  0.23295130  0.54617652     0.03000
H708        H  0.05713101  0.25808257  0.56473389     0.06500
H709        H  0.15503313  0.19817797  0.52923509     0.05500
H710        H  0.15718394  0.20162473  0.55854166    -0.00200
H711        H  0.14236785  0.22924852  0.54261262     0.01200
H712        H  0.48368560  0.05754044  0.55181524     0.04900
H713        H  0.46861332  0.08564588  0.53639393     0.06800
H714        H  0.97196473  0.08887687  0.56560049     0.07700
C715        C  0.27406981  0.36397518  0.57599064    -0.21900
C716        C  0.29992281  0.40151813  0.57858134     0.10100
C717        C  0.29646780  0.42140998  0.59630596     0.10500
C718        C  0.26628366  0.40320074  0.61086571    -0.16800
C719        C  0.24018443  0.36534179  0.60836239    -0.27200
C720        C  0.24479020  0.34536541  0.59085573     0.18800
C721        C  0.33075463  0.41863310  0.56257701     0.12800
C722        C  0.32446091  0.46172203  0.59971847    -0.11600
H723        H  0.26268402  0.41872176  0.62403262     0.13000
C724        C  0.22078067  0.30419626  0.58767973    -0.22400
H725        H  0.27741691  0.34878521  0.56250338     0.08700
C726        C  0.36321031  0.41527682  0.56496867     0.05000
C727        C  0.39018660  0.42861424  0.54832629    -0.19700
C728        C  0.38531323  0.44495736  0.52926569    -0.11900
C729        C  0.35221578  0.44752646  0.52669059     0.13700
C730        C  0.32556535  0.43470535  0.54358038    -0.22400
C731        C  0.36923610  0.39748510  0.58504885    -0.05500
H732        H  0.41554241  0.42673872  0.55035434     0.15300
C733        C  0.34299732  0.46171255  0.50610080    -0.15600
H734        H  0.29993343  0.43610744  0.54162240     0.09600
H735        H  0.23881439  0.29107082  0.58638807     0.07400
H736        H  0.20406663  0.29863795  0.57245311     0.08600
H737        H  0.20195126  0.29075865  0.60156301     0.07700
H738        H  0.32469980  0.47818169  0.58523497     0.02600
H739        H  0.35281550  0.46495356  0.60198424     0.03000
H740        H  0.31767716  0.47310770  0.61441424     0.06500
H741        H  0.39627411  0.39731371  0.58434821     0.05500
H742        H  0.34642536  0.36829293  0.58651499    -0.00200
H743        H  0.36936926  0.41301526  0.59988192     0.01200
H744        H  0.31538075  0.44028801  0.49980368     0.04900
H745        H  0.36345921  0.46785610  0.49273753     0.06800
H746        H  0.34146077  0.98726297  0.50982666     0.07700
C747        C  0.09813939  0.45199474  0.56358509    -0.21900
C748        C  0.08920770  0.41481029  0.56128577     0.10100
C749        C  0.06641829  0.39378925  0.54369319     0.10500
C750        C  0.05265062  0.41043208  0.52894344    -0.16800
C751        C  0.06187159  0.44787439  0.53101991    -0.27200
C752        C  0.08526421  0.46903289  0.54855515     0.18800
C753        C  0.10460382  0.39875342  0.57734444     0.12800
C754        C  0.05730729  0.35409906  0.54016790    -0.11600
H755        H  0.03489709  0.39419432  0.51554314     0.13000
C756        C  0.09605656  0.00921824  0.55203069    -0.22400
H757        H  0.11546191  0.46779673  0.57724128     0.08700
C758        C  0.14311980  0.40973515  0.57774339     0.05000
C759        C  0.15637650  0.39371720  0.59316321    -0.19700
C760        C  0.13204617  0.36666623  0.60797025    -0.11900
C761        C  0.09328261  0.35475627  0.60713324     0.13700
C762        C  0.08022564  0.37175351  0.59220384    -0.22400
C763        C  0.17012194  0.43757364  0.56156529    -0.05500
H764        H  0.18595890  0.40215869  0.59360917     0.15300
C765        C  0.06479468  0.32323786  0.62090051    -0.15600
H766        H  0.05062392  0.36319369  0.59175176     0.09600
H767        H  0.11345239  0.02633211  0.53813749     0.07400
H768        H  0.11278545  0.02052957  0.56718865     0.08600
H769        H  0.07053192  0.01206875  0.55350850     0.07700
H770        H  0.04108382  0.33661873  0.55425243     0.02600
H771        H  0.08361127  0.35272218  0.53840738     0.03000
H772        H  0.04031989  0.34222395  0.52515940     0.06500
H773        H  0.19888295  0.44172549  0.56366013     0.05500
H774        H  0.17146030  0.46486416  0.56381739    -0.00200
H775        H  0.16085498  0.42766440  0.54462325     0.01200
H776        H  0.05039990  0.33369151  0.63187785     0.04900
H777        H  0.07718899  0.30967540  0.63102088     0.06800
H778        H  0.04372714  0.30157289  0.61004692     0.07700
C779        C  0.12233578  0.20859733  0.68448899    -0.21900
C780        C  0.08565500  0.18474053  0.67753561     0.10100
C781        C  0.06799870  0.19807985  0.66310922     0.10500
C782        C  0.08820935  0.23443829  0.65505254    -0.16800
C783        C  0.12610993  0.25751052  0.66042966    -0.27200
C784        C  0.14299225  0.24477110  0.67604536     0.18800
C785        C  0.06599243  0.14622660  0.68609873     0.12800
C786        C  0.02836855  0.17355697  0.65552964    -0.11600
H787        H  0.07485119  0.24444456  0.64359952     0.13000
C788        C  0.18309499  0.26711240  0.68326325    -0.22400
H789        H  0.13537016  0.19843788  0.69608917     0.08700
C790        C  0.07443784  0.11866598  0.67884130     0.05000
C791        C  0.05688536  0.08343467  0.68889066    -0.19700
C792        C  0.03189750  0.07564097  0.70639799    -0.11900
C793        C  0.02113760  0.10257085  0.71218874     0.13700
C794        C  0.03877543  0.13749985  0.70216796    -0.22400
C795        C  0.10228980  0.12664098  0.66073516    -0.05500
H796        H  0.06449520  0.06274896  0.68400976     0.15300
C797        C  0.99110045  0.09613282  0.72860151    -0.15600
H798        H  0.03167904  0.15849402  0.70724493     0.09600
H799        H  0.19839751  0.25187888  0.67920469     0.07400
H800        H  0.18412756  0.27135817  0.70124541     0.08600
H801        H  0.19798259  0.29453285  0.67535418     0.07700
H802        H  0.00895075  0.16495261  0.66970445     0.02600
H803        H  0.02612719  0.14849279  0.64743142     0.03000
H804        H  0.01937291  0.18807757  0.64362350     0.06500
H805        H  0.10515737  0.10188417  0.65677885     0.05500
H806        H  0.13020133  0.14930615  0.66571205    -0.00200
H807        H  0.09300585  0.13511000  0.64572255     0.01200
H808        H  0.00280119  0.11778213  0.74148155     0.04900
H809        H  0.47920114  0.06895722  0.73677296     0.06800
H810        H  0.46796749  0.09801475  0.72024493     0.07700
C811        C  0.30525928  0.36999849  0.66420419    -0.21900
C812        C  0.31578356  0.40099625  0.67751572     0.10100
C813        C  0.28954842  0.41310491  0.68200552     0.10500
C814        C  0.25386412  0.39481295  0.67218449    -0.16800
C815        C  0.24380529  0.36453592  0.65814792    -0.27200
C816        C  0.26950210  0.35110356  0.65492153     0.18800
C817        C  0.35439701  0.42004302  0.68661035     0.12800
C818        C  0.29919457  0.44516185  0.69722183    -0.11600
H819        H  0.23418454  0.40486813  0.67492464     0.13000
C820        C  0.26018598  0.31648021  0.64223327    -0.22400
H821        H  0.32514044  0.36028488  0.66111748     0.08700
C822        C  0.36535821  0.40400211  0.70351089     0.05000
C823        C  0.40187127  0.42350985  0.71186177    -0.19700
C824        C  0.42719721  0.45984831  0.70485192    -0.11900
C825        C  0.41651905  0.47520620  0.68716704     0.13700
C826        C  0.38056056  0.45467654  0.67805355    -0.22400
C827        C  0.33806480  0.36709212  0.71347228    -0.05500
H828        H  0.41006144  0.41111016  0.72493324     0.15300
C829        C  0.44049380  0.01388686  0.67836492    -0.15600
H830        H  0.37220682  0.46658147  0.66476685     0.09600
H831        H  0.26385480  0.29662568  0.65290059     0.07400
H832        H  0.27914879  0.32353225  0.62789490     0.08600
H833        H  0.23106324  0.30228271  0.63643441     0.07700
H834        H  0.32311591  0.47079985  0.69053924     0.02600
H835        H  0.30687430  0.43895963  0.71354480     0.03000
H836        H  0.27526870  0.45046807  0.69940044     0.06500
H837        H  0.35080880  0.35934489  0.72717411     0.05500
H838        H  0.32860510  0.34493700  0.70094194    -0.00200
H839        H  0.31346262  0.36848330  0.72001216     0.01200
H840        H  0.44766968  0.01249316  0.66099468     0.04900
H841        H  0.46650025  0.02993882  0.68760439     0.06800
H842        H  0.42482972  0.02952708  0.67929397     0.07700
C843        C  0.09747175  0.45857062  0.70003591    -0.21900
C844        C  0.07747497  0.43086237  0.68470113     0.10100
C845        C  0.04016406  0.42168717  0.67984386     0.10500
C846        C  0.02354261  0.44002101  0.69088541    -0.16800
C847        C  0.04314631  0.46697747  0.70694740    -0.27200
C848        C  0.08117543  0.47685796  0.71108674     0.18800
C849        C  0.09614608  0.41115780  0.67473554     0.12800
C850        C  0.01796686  0.39256864  0.66302977    -0.11600
H851        H  0.49465092  0.43232859  0.68752394     0.13000
C852        C  0.10609031  0.50647315  0.72688875    -0.22400
H853        H  0.12614439  0.46566920  0.70369200     0.08700
C854        C  0.12511907  0.42838519  0.65915361     0.05000
C855        C  0.14316734  0.40921317  0.65120417    -0.19700
C856        C  0.13204131  0.37242783  0.65762854    -0.11900
C857        C  0.10287006  0.35534307  0.67337717     0.13700
C858        C  0.08601115  0.37521907  0.68196578    -0.22400
C859        C  0.13621932  0.46655538  0.65037915    -0.05500
H860        H  0.16548535  0.42269818  0.63930464     0.15300
C861        C  0.08704166  0.31580512  0.68090307    -0.15600
H862        H  0.06405049  0.36218871  0.69414577     0.09600
H863        H  0.13026167  0.02881836  0.71796882     0.07400
H864        H  0.11671089  0.49436176  0.73942609     0.08600
H865        H  0.09155466  0.01901233  0.73544937     0.07700
H866        H  0.01481010  0.36536468  0.66820697     0.02600
H867        H  0.03265846  0.40060386  0.64700585     0.03000
H868        H  0.48953761  0.38922431  0.66084056     0.06500
H869        H  0.15843070  0.47541682  0.63770565     0.05500
H870        H  0.14700369  0.48716005  0.66382661    -0.00200
H871        H  0.11152206  0.46655180  0.64282127     0.01200
H872        H  0.09136702  0.31505969  0.69880688     0.04900
H873        H  0.09982335  0.30128724  0.67264086     0.06800
H874        H  0.05656881  0.30029038  0.67736109     0.07700
C875        C  0.16848535  0.83206021  0.65631345     0.46000
H876        H  0.16904833  0.83337528  0.67447722    -0.03000
C877        C  0.16737795  0.82941350  0.61372087     0.46100
H878        H  0.16677935  0.82849158  0.59552470    -0.03000
C879        C  0.14862595  0.85209687  0.64554164    -0.16700
C880        C  0.20798724  0.84962500  0.64557817    -0.16500
C881        C  0.14764078  0.79195522  0.64703512    -0.16800
C882        C  0.14840569  0.85021791  0.62305083    -0.16800
C883        C  0.20688257  0.84838856  0.62307731    -0.16400
C884        C  0.14738175  0.79112952  0.62452342    -0.16700
C885        C  0.16560023  0.83150601  0.80412505     0.46000
H886        H  0.16478036  0.83252841  0.78597032    -0.03000
C887        C  0.16791001  0.82958064  0.84667983     0.46100
H888        H  0.16913032  0.82880937  0.86486811    -0.03000
C889        C  0.20592892  0.85218150  0.81365412    -0.16700
C890        C  0.14419729  0.84910462  0.81577889    -0.16500
C891        C  0.14808431  0.79156071  0.81384609    -0.16800
C892        C  0.20622408  0.85057105  0.83611443    -0.16800
C893        C  0.14653473  0.84845711  0.83823295    -0.16400
C894        C  0.14935211  0.79133131  0.83633104    -0.16700
C895        C  0.00202509  0.50147618  0.70910975     0.46000
H896        H  0.00320759  0.50145298  0.69094966    -0.03000
C897        C  0.49986355  0.50125363  0.75181967     0.46100
H898        H  0.49800969  0.50089305  0.76988884    -0.03000
C899        C  0.02229671  0.98212546  0.71995782    -0.16700
C900        C  0.01987768  0.54071928  0.71933954    -0.16500
C901        C  0.46186569  0.98155631  0.71839129    -0.16800
C902        C  0.01945458  0.98042156  0.74254125    -0.16800
C903        C  0.02197505  0.54049860  0.74179555    -0.16400
C904        C  0.46070960  0.98333431  0.74090574    -0.16700
C905        C  0.33606442  0.67552776  0.30227186     0.46000
H906        H  0.33616940  0.67804992  0.28442922    -0.03000
C907        C  0.33745926  0.67129795  0.34466905     0.46100
H908        H  0.33826186  0.67003066  0.36283978    -0.03000
C909        C  0.29651341  0.65384689  0.31288461    -0.16700
C910        C  0.35781439  0.65591052  0.31047447    -0.16500
C911        C  0.35480460  0.71368523  0.31376010    -0.16800
C912        C  0.29806349  0.65229524  0.33548426    -0.16800
C913        C  0.35749934  0.65330225  0.33302318    -0.16400
C914        C  0.35542473  0.71084413  0.33610248    -0.16700
C915        C  0.33143722  0.67099642  0.11296209     0.46000
H916        H  0.32954221  0.67276908  0.09495962    -0.03000
C917        C  0.33439564  0.66752260  0.15542959     0.46100
H918        H  0.33574606  0.66634512  0.17355742    -0.03000
C919        C  0.29374152  0.64445410  0.12328496    -0.16700
C920        C  0.35821154  0.65735136  0.12089555    -0.16500
C921        C  0.34454530  0.70830031  0.12418746    -0.16800
C922        C  0.29475271  0.64259816  0.14582431    -0.16800
C923        C  0.35988623  0.65518111  0.14343115    -0.16400
C924        C  0.34663058  0.70690797  0.14648235    -0.16700
C925        C  0.00097966  0.49808344  0.20713403     0.46000
H926        H  0.00113169  0.49639348  0.18899573    -0.03000
C927        C  0.00139188  0.50302578  0.24978890     0.46100
H928        H  0.00152403  0.50523190  0.26790862    -0.03000
C929        C  0.48434217  0.52231729  0.21583147    -0.16700
C930        C  0.47908814  0.95984570  0.21881634    -0.16500
C931        C  0.04043853  0.51553020  0.21710781    -0.16800
C932        C  0.48457209  0.52474015  0.23831823    -0.16800
C933        C  0.47733243  0.96302528  0.24128542    -0.16400
C934        C  0.04089945  0.51782950  0.23951114    -0.16700
Zn935      Zn  0.02084683  0.96967250  0.99170860     1.49700
Zn936      Zn  0.00153701  0.50015013  0.94847954     1.49400
Zn937      Zn  0.44693267  0.97799794  0.98914024     1.49100
Zn938      Zn  0.02777329  0.55086048  0.98991132     1.49500
O939        O  0.99923881  0.49949632  0.98002280    -1.83600
O940        O  0.03911452  0.94890534  0.96743163    -0.74200
O941        O  0.45121304  0.97992150  0.93521474    -0.74000
O942        O  0.43231626  0.93413993  0.00898101    -0.73500
O943        O  0.02331805  0.96950934  0.93786012    -0.74200
O944        O  0.48297296  0.92725820  0.01004784    -0.73800
O945        O  0.41176162  0.96248546  0.96325860    -0.74400
O946        O  0.49532723  0.56545989  0.00676337    -0.73800
O947        O  0.03298540  0.55095142  0.93637066    -0.74600
O948        O  0.43969637  0.51435120  0.00721361    -0.73900
O949        O  0.05314166  0.58761100  0.96538282    -0.74400
O950        O  0.06690248  0.55589732  0.01107187    -0.74300
O951        O  0.06327523  0.50031491  0.01232373    -0.74100
C952        C  0.03705981  0.95093973  0.94668476     0.77700
C953        C  0.41818934  0.96582481  0.94273655     0.78200
C954        C  0.44967100  0.91766127  0.01599081     0.77100
C955        C  0.46155081  0.54753094  0.01321305     0.77500
C956        C  0.05240501  0.58284405  0.94478417     0.78600
C957        C  0.07745110  0.53382285  0.01873392     0.77700
Zn958      Zn  0.47232027  0.52757324  0.48784397     1.49700
Zn959      Zn  0.47688506  0.95192292  0.48959187     1.49400
Zn960      Zn  0.00420158  0.50363921  0.44798937     1.49100
Zn961      Zn  0.05276053  0.53085375  0.49063239     1.49500
O962        O  0.00152360  0.50347165  0.47936661    -1.83600
O963        O  0.42738364  0.99306964  0.50564849    -0.74200
O964        O  0.45696249  0.91542944  0.46426344    -0.74000
O965        O  0.48142716  0.53123073  0.43464656    -0.73500
O966        O  0.43321725  0.94239529  0.50887980    -0.74200
O967        O  0.45620202  0.54702820  0.46177368    -0.73800
O968        O  0.47717916  0.95321386  0.43556296    -0.74400
O969        O  0.09198427  0.55244827  0.46645240    -0.73800
O970        O  0.01216387  0.94227555  0.50822278    -0.74600
O971        O  0.05615851  0.52850949  0.43728278    -0.73900
O972        O  0.06360822  0.99733750  0.50973062    -0.74400
O973        O  0.05810688  0.57250071  0.50976484    -0.74300
O974        O  0.00279119  0.57021730  0.50774425    -0.74100
C975        C  0.41646954  0.96070912  0.51339570     0.77700
C976        C  0.45909640  0.92083151  0.44361811     0.78200
C977        C  0.46338229  0.54682843  0.44150161     0.77100
C978        C  0.08820472  0.54792433  0.44580828     0.77500
C979        C  0.04514250  0.96333205  0.51539979     0.78600
C980        C  0.03585210  0.58436790  0.51532026     0.77700
C981        C  0.13261791  0.54553499  0.07092784    -0.21900
C982        C  0.16478546  0.57935406  0.06651268     0.10100
C983        C  0.16817913  0.59796235  0.04654234     0.10500
C984        C  0.13913782  0.58213776  0.03126062    -0.16800
C985        C  0.10698469  0.54804733  0.03545700    -0.27200
C986        C  0.10326657  0.52975762  0.05575294     0.18800
C987        C  0.19580671  0.59390521  0.08235285     0.12800
C988        C  0.20249217  0.63445240  0.04138043    -0.11600
H989        H  0.14165745  0.59628565  0.01583642     0.13000
C990        C  0.06847170  0.49467218  0.06247130    -0.22400
H991        H  0.13031306  0.53155096  0.08638901     0.08700
C992        C  0.19747164  0.61631774  0.10011656     0.05000
C993        C  0.22927056  0.63167534  0.11357166    -0.19700
C994        C  0.25955884  0.62546761  0.10938970    -0.11900
C995        C  0.25719826  0.60225895  0.09163617     0.13700
C996        C  0.22515978  0.58658847  0.07854342    -0.22400
C997        C  0.16610449  0.62459532  0.10448967    -0.05500
H998        H  0.23082239  0.64921749  0.12714448     0.15300
C999        C  0.28738117  0.59257505  0.08652022    -0.15600
H1000       H  0.22325038  0.56913055  0.06481859     0.09600
H1001       H  0.05778069  0.49946582  0.07814754     0.07400
H1002       H  0.07537321  0.47199864  0.06491289     0.08600
H1003       H  0.04538447  0.48533246  0.05047821     0.07700
H1004       H  0.22762987  0.63079865  0.04119704     0.02600
H1005       H  0.20616067  0.65529264  0.05398285     0.03000
H1006       H  0.20033690  0.64546947  0.02513861     0.06500
H1007       H  0.17233870  0.64342942  0.11869510     0.05500
H1008       H  0.13992869  0.59834829  0.10798436    -0.00200
H1009       H  0.16174939  0.63828198  0.08995429     0.01200
H1010       H  0.27862432  0.57107652  0.07358308     0.04900
H1011       H  0.29391560  0.58124098  0.10128701     0.06800
H1012       H  0.31265242  0.61720562  0.08027944     0.07700
C1013       C  0.40615718  0.86540539  0.06856466    -0.21900
C1014       C  0.39948633  0.82979212  0.06310813     0.10100
C1015       C  0.40814832  0.82268608  0.04192551     0.10500
C1016       C  0.42425399  0.85188919  0.02669291    -0.16800
C1017       C  0.43135501  0.88771584  0.03220845    -0.27200
C1018       C  0.42220551  0.89462981  0.05341649     0.18800
C1019       C  0.38540215  0.80085211  0.08025256     0.12800
C1020       C  0.40063342  0.78440417  0.03554021    -0.11600
H1021       H  0.43141231  0.84682323  0.01045163     0.13000
C1022       C  0.43039170  0.93262514  0.06102937    -0.22400
H1023       H  0.39971655  0.87063125  0.08496347     0.08700
C1024       C  0.41030483  0.79601700  0.09406384     0.05000
C1025       C  0.39595389  0.76703118  0.10936393    -0.19700
C1026       C  0.35737196  0.74280863  0.11115981    -0.11900
C1027       C  0.33237658  0.74904959  0.09815217     0.13700
C1028       C  0.34674702  0.77784579  0.08264662    -0.22400
C1029       C  0.45203199  0.82074943  0.09220904    -0.05500
H1030       H  0.41517429  0.76205251  0.11907003     0.15300
C1031       C  0.29057212  0.72615772  0.10041753    -0.15600
H1032       H  0.32773206  0.78226776  0.07227519     0.09600
H1033       H  0.44899143  0.94064390  0.07557728     0.07400
H1034       H  0.40382090  0.93189331  0.06569891     0.08600
H1035       H  0.44450652  0.95462361  0.04851193     0.07700
H1036       H  0.37028405  0.76444827  0.03718801     0.02600
H1037       H  0.41657448  0.77539944  0.04634309     0.03000
H1038       H  0.40900431  0.78364157  0.01833697     0.06500
H1039       H  0.46742800  0.81294985  0.10423068     0.05500
H1040       H  0.45928483  0.85000120  0.09531954    -0.00200
H1041       H  0.46158118  0.81860163  0.07554212     0.01200
H1042       H  0.27850870  0.74472807  0.10339079     0.04900
H1043       H  0.28235933  0.70670868  0.11441710     0.06800
H1044       H  0.27841678  0.71018695  0.08517003     0.07700
C1045       C  0.41023768  0.64714807  0.07195852    -0.21900
C1046       C  0.40240249  0.61046712  0.07467294     0.10100
C1047       C  0.38161634  0.58960667  0.09286660     0.10500
C1048       C  0.36809152  0.60585271  0.10780136    -0.16800
C1049       C  0.37541630  0.64266223  0.10511302    -0.27200
C1050       C  0.39722917  0.66375366  0.08698003     0.18800
C1051       C  0.41739016  0.59491036  0.05849635     0.12800
C1052       C  0.37362933  0.55025009  0.09641375    -0.11600
H1053       H  0.35103428  0.58945205  0.12143650     0.13000
C1054       C  0.40895072  0.70417856  0.08373776    -0.22400
H1055       H  0.42693813  0.66290259  0.05803037     0.08700
C1056       C  0.39739327  0.57749019  0.03936432     0.05000
C1057       C  0.41275210  0.56258494  0.02466237    -0.19700
C1058       C  0.44762992  0.56500587  0.02875697    -0.11900
C1059       C  0.46750536  0.58241010  0.04813499     0.13700
C1060       C  0.45227893  0.59774217  0.06254415    -0.22400
C1061       C  0.35993489  0.57460630  0.03459830    -0.05500
H1062       H  0.39752966  0.54899490  0.00991685     0.15300
C1063       C  0.00361552  0.58372469  0.05497540    -0.15600
H1064       H  0.46721296  0.61108606  0.07742642     0.09600
H1065       H  0.42831962  0.71639625  0.06962212     0.07400
H1066       H  0.42404616  0.71996592  0.09841993     0.08600
H1067       H  0.38458493  0.70805713  0.08028124     0.07700
H1068       H  0.40035841  0.54967982  0.09812079     0.02600
H1069       H  0.35780454  0.53285086  0.08226114     0.03000
H1070       H  0.35680472  0.53788562  0.11146277     0.06500
H1071       H  0.34800560  0.05999660  0.01893196     0.05500
H1072       H  0.36301652  0.60283648  0.03343024    -0.00200
H1073       H  0.33990763  0.55898460  0.04793514     0.01200
H1074       H  0.02641107  0.61303907  0.05537002     0.04900
H1075       H  0.01230101  0.56772929  0.04426888     0.06800
H1076       H  0.00024633  0.57166003  0.07165535     0.07700
C1077       C  0.36331190  0.79505530  0.17566590    -0.21900
C1078       C  0.40262983  0.81450050  0.17642523     0.10100
C1079       C  0.42263914  0.79658652  0.16909431     0.10500
C1080       C  0.40289981  0.75961590  0.16200897    -0.16800
C1081       C  0.36390202  0.74121165  0.15987053    -0.27200
C1082       C  0.34379519  0.75921872  0.16664687     0.18800
C1083       C  0.42237179  0.85240097  0.18625947     0.12800
C1084       C  0.46476458  0.81700403  0.16722729    -0.11600
H1085       H  0.41819457  0.74590260  0.15641952     0.13000
C1086       C  0.30200177  0.74183421  0.16411628    -0.22400
H1087       H  0.34773436  0.80817908  0.18171143     0.08700
C1088       C  0.42132299  0.88360013  0.17729002     0.05000
C1089       C  0.44086009  0.91840504  0.18783567    -0.19700
C1090       C  0.46229875  0.92313608  0.20682104    -0.11900
C1091       C  0.46559747  0.89206934  0.21434596     0.13700
C1092       C  0.44399005  0.85721045  0.20486929    -0.22400
C1093       C  0.40028415  0.88047973  0.15645553    -0.05500
H1094       H  0.43873483  0.94179983  0.18143372     0.15300
C1095       C  0.49286795  0.89403095  0.23141087    -0.15600
H1096       H  0.44504554  0.83343845  0.21175739     0.09600
H1097       H  0.28937178  0.71426296  0.15617733     0.07400
H1098       H  0.29533331  0.76009859  0.15383360     0.08600
H1099       H  0.28885886  0.73849534  0.18046513     0.07700
H1100       H  0.47799598  0.82480488  0.18357993     0.02600
H1101       H  0.47388708  0.84240020  0.15709711     0.03000
H1102       H  0.47528965  0.79970018  0.15926144     0.06500
H1103       H  0.40381462  0.90781706  0.15119424     0.05500
H1104       H  0.36994480  0.86140800  0.15883755    -0.00200
H1105       H  0.41084436  0.86976570  0.14313326     0.01200
H1106       H  0.47775588  0.87488081  0.24516160     0.04900
H1107       H  0.50959729  0.92199165  0.23775931     0.06800
H1108       H  0.51243778  0.88559281  0.22411629     0.07700
C1109       C  0.43413173  0.62736388  0.15703333    -0.21900
C1110       C  0.41495027  0.59829057  0.17202592     0.10100
C1111       C  0.38018287  0.59237049  0.18039517     0.10500
C1112       C  0.36303437  0.61167898  0.17107731    -0.16800
C1113       C  0.38138961  0.63937604  0.15509472    -0.27200
C1114       C  0.41877369  0.64926904  0.14951622     0.18800
C1115       C  0.43428134  0.57824498  0.18085995     0.12800
C1116       C  0.36252553  0.56795630  0.20016579    -0.11600
H1117       H  0.33517321  0.60509111  0.17632953     0.13000
C1118       C  0.44396581  0.68379036  0.13668445    -0.22400
H1119       H  0.46208481  0.63406916  0.15185781     0.08700
C1120       C  0.42102443  0.53987437  0.17745301     0.05000
C1121       C  0.43832043  0.52213137  0.18856161    -0.19700
C1122       C  0.47033109  0.54245295  0.20149188    -0.11900
C1123       C  0.48664098  0.58166326  0.20194841     0.13700
C1124       C  0.46777720  0.59877291  0.19235925    -0.22400
C1125       C  0.39041698  0.51824240  0.16112501    -0.05500
H1126       H  0.42661720  0.99234453  0.18731323     0.15300
C1127       C  0.02437014  0.60659462  0.21183644    -0.15600
H1128       H  0.47943861  0.62858646  0.19384687     0.09600
H1129       H  0.45213183  0.67617075  0.12100757     0.07400
H1130       H  0.46969088  0.70112783  0.14630535     0.08600
H1131       H  0.43070771  0.70113936  0.13337504     0.07700
H1132       H  0.38251871  0.57836844  0.21405385     0.02600
H1133       H  0.35520739  0.53883564  0.19695317     0.03000
H1134       H  0.33657933  0.56815008  0.20527966     0.06500
H1135       H  0.38428316  0.98892374  0.16006433     0.05500
H1136       H  0.39945832  0.53108640  0.14467001    -0.00200
H1137       H  0.36413879  0.51813835  0.16545209     0.01200
H1138       H  0.03715929  0.59101374  0.21935704     0.04900
H1139       H  0.04366452  0.62477096  0.19886256     0.06800
H1140       H  0.52170474  0.62453110  0.22438122     0.07700
C1141       C  0.13587152  0.53499110  0.19675816    -0.21900
C1142       C  0.14901874  0.56967959  0.18668276     0.10100
C1143       C  0.12377109  0.58347034  0.18319465     0.10500
C1144       C  0.08773530  0.56459724  0.19260149    -0.16800
C1145       C  0.07554671  0.53092503  0.20388998    -0.27200
C1146       C  0.09911114  0.51481513  0.20443921     0.18800
C1147       C  0.18792046  0.58825842  0.17792859     0.12800
C1148       C  0.13355449  0.61617611  0.16830795    -0.11600
H1149       H  0.06900733  0.57604026  0.19106329     0.13000
C1150       C  0.08595097  0.47574138  0.21194694    -0.22400
H1151       H  0.15424424  0.52303327  0.19814096     0.08700
C1152       C  0.21676016  0.62200294  0.18647639     0.05000
C1153       C  0.25237626  0.63868288  0.17651253    -0.19700
C1154       C  0.26049787  0.62083321  0.15951225    -0.11900
C1155       C  0.23368509  0.58384231  0.15433269     0.13700
C1156       C  0.19722788  0.56902095  0.16248375    -0.22400
C1157       C  0.21095034  0.63892630  0.20694135    -0.05500
H1158       H  0.27378421  0.66570080  0.18197375     0.15300
C1159       C  0.24310243  0.55872353  0.14118129    -0.15600
H1160       H  0.17614912  0.54156573  0.15730537     0.09600
H1161       H  0.10434906  0.47561666  0.22520390     0.07400
H1162       H  0.08758085  0.45924897  0.19808251     0.08600
H1163       H  0.05670531  0.46217141  0.21760315     0.07700
H1164       H  0.13972220  0.60968786  0.15172911     0.02600
H1165       H  0.15829795  0.64155256  0.17424087     0.03000
H1166       H  0.11004272  0.62230703  0.16687639     0.06500
H1167       H  0.23697513  0.66426501  0.21189132     0.05500
H1168       H  0.20259602  0.61845181  0.22052377    -0.00200
H1169       H  0.18881921  0.64666075  0.20474874     0.01200
H1170       H  0.23644683  0.53350237  0.15097023     0.04900
H1171       H  0.27328083  0.57210718  0.13710486     0.06800
H1172       H  0.22617425  0.55002578  0.12596485     0.07700
C1173       C  0.18140544  0.61456899  0.41850197    -0.21900
C1174       C  0.17681197  0.59685511  0.39827413     0.10100
C1175       C  0.14414971  0.56294470  0.39426474     0.10500
C1176       C  0.11683078  0.54736897  0.41050995    -0.16800
C1177       C  0.12075260  0.56499506  0.43073933    -0.27200
C1178       C  0.15361790  0.59916534  0.43483202     0.18800
C1179       C  0.20775183  0.61218393  0.38216683     0.12800
C1180       C  0.13754719  0.54344420  0.37263447    -0.11600
H1181       H  0.09184789  0.52122815  0.40720160     0.13000
C1182       C  0.15925827  0.62001319  0.45593885    -0.22400
H1183       H  0.20687018  0.64044041  0.42149950     0.08700
C1184       C  0.21380254  0.64123087  0.36759247     0.05000
C1185       C  0.24281589  0.65321152  0.35206257    -0.19700
C1186       C  0.26577434  0.63674704  0.35094297    -0.11900
C1187       C  0.25930964  0.60747436  0.36558190     0.13700
C1188       C  0.23044010  0.59566786  0.38096546    -0.22400
C1189       C  0.18958159  0.65931724  0.36841838    -0.05500
H1190       H  0.24801028  0.67582728  0.34098252     0.15300
C1191       C  0.28168668  0.58748464  0.36467989    -0.15600
H1192       H  0.22522924  0.57310544  0.39210879     0.09600
H1193       H  0.18591871  0.64676770  0.45589603     0.07400
H1194       H  0.16025999  0.60316791  0.46987210     0.08600
H1195       H  0.13601796  0.62626665  0.45839497     0.07700
H1196       H  0.15995321  0.53627788  0.36944942     0.02600
H1197       H  0.13713437  0.56196395  0.35954709     0.03000
H1198       H  0.11033060  0.01728490  0.37220841     0.06500
H1199       H  0.19791279  0.68141942  0.35579262     0.05500
H1200       H  0.19206125  0.67207710  0.38473762    -0.00200
H1201       H  0.15993110  0.63818418  0.36552447     0.01200
H1202       H  0.31090084  0.60630285  0.36966046     0.04900
H1203       H  0.28061140  0.57708580  0.34787259     0.06800
H1204       H  0.27049124  0.56323774  0.37596838     0.07700
C1205       C  0.42063548  0.79610424  0.36899413    -0.21900
C1206       C  0.39497722  0.79881922  0.38297832     0.10100
C1207       C  0.35649965  0.77319488  0.38127054     0.10500
C1208       C  0.34449540  0.74511273  0.36552629    -0.16800
C1209       C  0.37015912  0.74222735  0.35157778    -0.27200
C1210       C  0.40878505  0.76758709  0.35356134     0.18800
C1211       C  0.40928655  0.82878266  0.39933776     0.12800
C1212       C  0.32831329  0.77525475  0.39621034    -0.11600
H1213       H  0.31496682  0.72519533  0.36410700     0.13000
C1214       C  0.43827861  0.76447787  0.34046594    -0.22400
H1215       H  0.45021543  0.81580752  0.37055735     0.08700
C1216       C  0.42491108  0.82560581  0.41927163     0.05000
C1217       C  0.44008516  0.85574648  0.43374187    -0.19700
C1218       C  0.44047381  0.88909463  0.42847806    -0.11900
C1219       C  0.42374799  0.89172591  0.40863295     0.13700
C1220       C  0.40831932  0.86138901  0.39435744    -0.22400
C1221       C  0.42572392  0.79050192  0.42514693    -0.05500
H1222       H  0.45263948  0.85362641  0.44893345     0.15300
C1223       C  0.42123030  0.92592868  0.40247114    -0.15600
H1224       H  0.39591653  0.86322378  0.37902552     0.09600
H1225       H  0.45886376  0.76312299  0.35176359     0.07400
H1226       H  0.45302292  0.78918838  0.32967534     0.08600
H1227       H  0.42661321  0.73916126  0.33030457     0.07700
H1228       H  0.32895399  0.80227271  0.39392567     0.02600
H1229       H  0.33506778  0.77261261  0.41351178     0.03000
H1230       H  0.29941821  0.75272350  0.39281508     0.06500
H1231       H  0.43865332  0.79253376  0.44144003     0.05500
H1232       H  0.44223190  0.78493020  0.41279035    -0.00200
H1233       H  0.39674100  0.76678724  0.42557615     0.01200
H1234       H  0.44955426  0.94961284  0.39928647     0.04900
H1235       H  0.40750348  0.93306542  0.41584383     0.06800
H1236       H  0.40453593  0.92160969  0.38733601     0.07700
C1237       C  0.45754400  0.59779707  0.39115288    -0.21900
C1238       C  0.42122090  0.59232001  0.39321730     0.10100
C1239       C  0.39912022  0.57317594  0.41150792     0.10500
C1240       C  0.41398781  0.55954224  0.42745809    -0.16800
C1241       C  0.45018748  0.56429689  0.42524775    -0.27200
C1242       C  0.47246560  0.58407086  0.40695043     0.18800
C1243       C  0.40750770  0.60853332  0.37653128     0.12800
C1244       C  0.35999145  0.56731118  0.41415373    -0.11600
H1245       H  0.39698700  0.54434734  0.44141763     0.13000
C1246       C  0.51232269  0.59188819  0.40420780    -0.22400
H1247       H  0.47428161  0.61305258  0.37711723     0.08700
C1248       C  0.41726849  0.64627028  0.37737349     0.05000
C1249       C  0.40140607  0.66000147  0.36227413    -0.19700
C1250       C  0.37589935  0.63686089  0.34645601    -0.11900
C1251       C  0.36705068  0.59911730  0.34516222     0.13700
C1252       C  0.38343068  0.58558961  0.36018099    -0.22400
C1253       C  0.44362889  0.67177410  0.39455541    -0.05500
H1254       H  0.40834984  0.68891331  0.36309291     0.15300
C1255       C  0.33962746  0.57192301  0.32898890    -0.15600
H1256       H  0.37640608  0.55662404  0.35963550     0.09600
H1257       H  0.52879562  0.60581398  0.41906547     0.07400
H1258       H  0.52620978  0.61039344  0.38997223     0.08600
H1259       H  0.51303360  0.56570729  0.40131569     0.07700
H1260       H  0.34234882  0.55087837  0.40020499     0.02600
H1261       H  0.36072302  0.59457061  0.41459338     0.03000
H1262       H  0.34670959  0.55210410  0.42952066     0.06500
H1263       H  0.44772078  0.70037049  0.39303341     0.05500
H1264       H  0.47138219  0.67337940  0.39284579    -0.00200
H1265       H  0.43220304  0.66106605  0.41111597     0.01200
H1266       H  0.35452392  0.56247832  0.31770112     0.04900
H1267       H  0.32508209  0.58360204  0.31917546     0.06800
H1268       H  0.31780150  0.54736424  0.33787543     0.07700
C1269       C  0.41267014  0.80010558  0.27899728    -0.21900
C1270       C  0.39861521  0.82325358  0.28611268     0.10100
C1271       C  0.36833468  0.80932230  0.30089774     0.10500
C1272       C  0.35341010  0.77279413  0.30869186    -0.16800
C1273       C  0.36835058  0.74996073  0.30229896    -0.27200
C1274       C  0.39786006  0.76351986  0.28685230     0.18800
C1275       C  0.41608092  0.86188532  0.27764644     0.12800
C1276       C  0.35249170  0.83330406  0.30891680    -0.11600
H1277       H  0.33041073  0.76217588  0.32026756     0.13000
C1278       C  0.41460926  0.74018956  0.27899312    -0.22400
H1279       H  0.43562378  0.81094229  0.26737915     0.08700
C1280       C  0.45114123  0.88968948  0.28532080     0.05000
C1281       C  0.46877993  0.92445066  0.27477372    -0.19700
C1282       C  0.45291734  0.93124755  0.25609790    -0.11900
C1283       C  0.41532539  0.90536460  0.25073431     0.13700
C1284       C  0.39781906  0.87057197  0.26113883    -0.22400
C1285       C  0.47038977  0.88228014  0.30417071    -0.05500
H1286       H  0.99593440  0.94533833  0.28037457     0.15300
C1287       C  0.39262290  0.91371797  0.23451922    -0.15600
H1288       H  0.37001107  0.84984413  0.25605350     0.09600
H1289       H  0.43883443  0.75614940  0.26793901     0.07400
H1290       H  0.39354758  0.71601898  0.26966469     0.08600
H1291       H  0.42457435  0.73027634  0.29302173     0.07700
H1292       H  0.34121675  0.84201945  0.29492060     0.02600
H1293       H  0.37480344  0.85833162  0.31709931     0.03000
H1294       H  0.32942561  0.81830885  0.32085757     0.06500
H1295       H  0.99746563  0.90713451  0.30822920     0.05500
H1296       H  0.47614435  0.85938727  0.29995620    -0.00200
H1297       H  0.45219429  0.87431111  0.31891003     0.01200
H1298       H  0.38368257  0.89356674  0.22082892     0.04900
H1299       H  0.40811317  0.94228828  0.22779544     0.06800
H1300       H  0.36724583  0.91101215  0.24277750     0.07700
C1301       C  0.46968790  0.59823742  0.26712613    -0.21900
C1302       C  0.43048312  0.58158974  0.26822319     0.10100
C1303       C  0.40907139  0.54466489  0.26018514     0.10500
C1304       C  0.42747301  0.52746744  0.24994077    -0.16800
C1305       C  0.46659201  0.54348729  0.25042003    -0.27200
C1306       C  0.48742760  0.57801754  0.26101043     0.18800
C1307       C  0.41350279  0.60352996  0.27792339     0.12800
C1308       C  0.36726631  0.52156199  0.26297019    -0.11600
H1309       H  0.41107456  0.00041903  0.24250577     0.13000
C1310       C  0.02763018  0.59351726  0.26747872    -0.22400
H1311       H  0.48685971  0.62652114  0.27267153     0.08700
C1312       C  0.42868766  0.62625639  0.29671786     0.05000
C1313       C  0.41398292  0.64887535  0.30356342    -0.19700
C1314       C  0.37909249  0.64304891  0.29605716    -0.11900
C1315       C  0.36350552  0.62037932  0.27733751     0.13700
C1316       C  0.38257440  0.60337356  0.26765329    -0.22400
C1317       C  0.45759422  0.62493389  0.31155141    -0.05500
H1318       H  0.42753898  0.66785237  0.31698819     0.15300
C1319       C  0.32597338  0.61173312  0.26810866    -0.15600
H1320       H  0.37179926  0.58793209  0.25264039     0.09600
H1321       H  0.04590079  0.61915328  0.25812734     0.07400
H1322       H  0.03073860  0.60035782  0.28519618     0.08600
H1323       H  0.03676754  0.57281327  0.26537871     0.07700
H1324       H  0.35336021  0.51730811  0.24679842     0.02600
H1325       H  0.35552023  0.53380143  0.27452882     0.03000
H1326       H  0.36039547  0.99403509  0.26992951     0.06500
H1327       H  0.44797559  0.62168667  0.32882381     0.05500
H1328       H  0.48451403  0.65123581  0.31008862    -0.00200
H1329       H  0.46197127  0.60093754  0.30831608     0.01200
H1330       H  0.32770578  0.63661166  0.26005783     0.04900
H1331       H  0.30454296  0.60148833  0.28127095     0.06800
H1332       H  0.31642038  0.58974752  0.25542782     0.07700
C1333       C  0.12951851  0.53862308  0.27118256    -0.21900
C1334       C  0.14826182  0.57762421  0.27247850     0.10100
C1335       C  0.13044099  0.59656903  0.26307893     0.10500
C1336       C  0.09723291  0.57637079  0.25111932    -0.16800
C1337       C  0.07691400  0.53743464  0.25200031    -0.27200
C1338       C  0.09303012  0.51852777  0.26306422     0.18800
C1339       C  0.18660553  0.59716134  0.28270351     0.12800
C1340       C  0.14380120  0.63737146  0.26626090    -0.11600
H1341       H  0.08597584  0.59132799  0.24206223     0.13000
C1342       C  0.07274823  0.97746105  0.26703315    -0.22400
H1343       H  0.14291374  0.52324003  0.27712514     0.08700
C1344       C  0.19625439  0.58258766  0.30116814     0.05000
C1345       C  0.23350779  0.59907498  0.30800786    -0.19700
C1346       C  0.26049556  0.63409753  0.30032971    -0.11900
C1347       C  0.25096662  0.64971170  0.28235078     0.13700
C1348       C  0.21514666  0.62967043  0.27291779    -0.22400
C1349       C  0.16815961  0.55180273  0.31548524    -0.05500
H1350       H  0.24066689  0.58561307  0.32091254     0.15300
C1351       C  0.27692859  0.68794720  0.27349620    -0.15600
H1352       H  0.20916250  0.64036755  0.25815452     0.09600
H1353       H  0.06847650  0.97195727  0.28490686     0.07400
H1354       H  0.08913506  0.96452926  0.26082205     0.08600
H1355       H  0.04544248  0.96444507  0.25908125     0.07700
H1356       H  0.15426397  0.65238261  0.25048239     0.02600
H1357       H  0.16571162  0.65009110  0.27897528     0.03000
H1358       H  0.12008086  0.64112403  0.27195258     0.06500
H1359       H  0.17512566  0.56003752  0.33280428     0.05500
H1360       H  0.16982463  0.52602985  0.31284921    -0.00200
H1361       H  0.13915304  0.54654148  0.31299832     0.01200
H1362       H  0.29947172  0.68773282  0.26362146     0.04900
H1363       H  0.28868229  0.70814020  0.28711237     0.06800
H1364       H  0.26196533  0.69778889  0.26244950     0.07700
C1365       C  0.08841067  0.70416995  0.86941426    -0.21900
C1366       C  0.11557334  0.70256515  0.88259297     0.10100
C1367       C  0.15373286  0.72803975  0.87928944     0.10500
C1368       C  0.16376859  0.75583284  0.86339720    -0.16800
C1369       C  0.13655612  0.75819577  0.85054155    -0.27200
C1370       C  0.09835540  0.73160060  0.85331388     0.18800
C1371       C  0.10305439  0.67381502  0.89976220     0.12800
C1372       C  0.18365745  0.72634133  0.89280958    -0.11600
H1373       H  0.19299228  0.77626796  0.86119635     0.13000
C1374       C  0.06720398  0.73163292  0.84024819    -0.22400
H1375       H  0.05913255  0.68409508  0.87193856     0.08700
C1376       C  0.08852060  0.67798187  0.91982844     0.05000
C1377       C  0.07384830  0.64840387  0.93483228    -0.19700
C1378       C  0.07352209  0.61493011  0.93012003    -0.11900
C1379       C  0.09058453  0.61198416  0.91056533     0.13700
C1380       C  0.10436284  0.64123706  0.89543848    -0.22400
C1381       C  0.08805427  0.71339317  0.92519485    -0.05500
H1382       H  0.06123096  0.65089471  0.94988093     0.15300
C1383       C  0.09575680  0.57907468  0.90521908    -0.15600
H1384       H  0.11629569  0.63866436  0.88012197     0.09600
H1385       H  0.04818791  0.73593807  0.85134602     0.07400
H1386       H  0.05108878  0.70452785  0.83183800     0.08600
H1387       H  0.07738759  0.75342009  0.82759054     0.07700
H1388       H  0.18268396  0.69924235  0.89029157     0.02600
H1389       H  0.17909079  0.72947704  0.91041222     0.03000
H1390       H  0.21207472  0.74870934  0.88822156     0.06500
H1391       H  0.57610260  0.71218073  0.94169363     0.05500
H1392       H  0.07085834  0.71842619  0.91301157    -0.00200
H1393       H  0.11706086  0.73708771  0.92486982     0.01200
H1394       H  0.07821722  0.56415475  0.89088192     0.04900
H1395       H  0.08897920  0.55936400  0.91903022     0.06800
H1396       H  0.12557079  0.58894824  0.90107325     0.07700
C1397       C  0.29696006  0.87750611  0.86625186    -0.21900
C1398       C  0.29773939  0.90444296  0.88048957     0.10100
C1399       C  0.26959553  0.91465505  0.87942088     0.10500
C1400       C  0.24077030  0.89718162  0.86419818    -0.16800
C1401       C  0.23944568  0.86967607  0.85021452    -0.27200
C1402       C  0.26766162  0.85939850  0.85129577     0.18800
C1403       C  0.32761025  0.92063843  0.89697034     0.12800
C1404       C  0.26957260  0.94332173  0.89463209    -0.11600
H1405       H  0.21873939  0.90454045  0.86342676     0.13000
C1406       C  0.26690405  0.82854140  0.83778936    -0.22400
H1407       H  0.31867794  0.86971460  0.86735648     0.08700
C1408       C  0.32479264  0.90233749  0.91698180     0.05000
C1409       C  0.35433455  0.91841310  0.93197770    -0.19700
C1410       C  0.38673686  0.95200333  0.92716049    -0.11900
C1411       C  0.38900732  0.97071922  0.90720722     0.13700
C1412       C  0.35920367  0.95472550  0.89238364    -0.22400
C1413       C  0.29073663  0.86579410  0.92237500    -0.05500
H1414       H  0.35260778  0.90413021  0.94723084     0.15300
C1415       C  0.42221230  0.00782455  0.90155683    -0.15600
H1416       H  0.36062921  0.96859528  0.87700713     0.09600
H1417       H  0.26755719  0.80739202  0.84881303     0.07400
H1418       H  0.29182418  0.83997619  0.82691774     0.08600
H1419       H  0.24148845  0.81413175  0.82753983     0.07700
H1420       H  0.29544512  0.97029374  0.89214551     0.02600
H1421       H  0.26837053  0.93420762  0.91188211     0.03000
H1422       H  0.24515215  0.94762503  0.89169588     0.06500
H1423       H  0.29300119  0.85534544  0.93877984     0.05500
H1424       H  0.28733991  0.84464865  0.91005670    -0.00200
H1425       H  0.26542331  0.86916467  0.92227116     0.01200
H1426       H  0.44750415  0.00490001  0.89910688     0.04900
H1427       H  0.42723319  0.52796556  0.91488221     0.06800
H1428       H  0.41761517  0.51947283  0.88616546     0.07700
C1429       C  0.12564758  0.91363704  0.87194152    -0.21900
C1430       C  0.10063771  0.88862741  0.88736570     0.10100
C1431       C  0.09056804  0.85080135  0.88645275     0.10500
C1432       C  0.10557203  0.83869018  0.86987947    -0.16800
C1433       C  0.13024025  0.86350603  0.85417760    -0.27200
C1434       C  0.14130661  0.90170858  0.85557542     0.18800
C1435       C  0.08380271  0.90241724  0.90360894     0.12800
C1436       C  0.06408735  0.82333205  0.90295531    -0.11600
H1437       H  0.09794231  0.80957765  0.86908987     0.13000
C1438       C  0.17067245  0.93083475  0.84095151    -0.22400
H1439       H  0.13345082  0.94277492  0.87292923     0.08700
C1440       C  0.10151525  0.91803775  0.92364666     0.05000
C1441       C  0.08493426  0.93249076  0.93788406    -0.19700
C1442       C  0.05142333  0.93205739  0.93225524    -0.11900
C1443       C  0.03314224  0.91509230  0.91240740     0.13700
C1444       C  0.04965941  0.90046772  0.89838235    -0.22400
C1445       C  0.13800269  0.91980573  0.92979383    -0.05500
H1446       H  0.09881373  0.94528242  0.95309993     0.15300
C1447       C  0.99590555  0.91153606  0.90598832    -0.15600
H1448       H  0.03619485  0.88789959  0.88302518     0.09600
H1449       H  0.19327437  0.95227457  0.85117857     0.07400
H1450       H  0.15789025  0.94427063  0.83095225     0.08600
H1451       H  0.18404960  0.91959154  0.82985537     0.07700
H1452       H  0.03660196  0.82252307  0.90211395     0.02600
H1453       H  0.07576437  0.83164435  0.91968599     0.03000
H1454       H  0.05942630  0.79484588  0.89990823     0.06500
H1455       H  0.14806540  0.93289786  0.94605354     0.05500
H1456       H  0.15973748  0.93638154  0.91743485    -0.00200
H1457       H  0.13437636  0.89133619  0.93045960     0.01200
H1458       H  0.98451619  0.39464565  0.89094529     0.04900
H1459       H  0.99893334  0.43928764  0.90252808     0.06800
H1460       H  0.97525414  0.89773361  0.91935201     0.07700
C1461       C  0.29092545  0.87753122  0.77686694    -0.21900
C1462       C  0.31530891  0.91374889  0.78393959     0.10100
C1463       C  0.30210750  0.93082989  0.79882350     0.10500
C1464       C  0.26508654  0.91100989  0.80652838    -0.16800
C1465       C  0.24125966  0.87373198  0.80067952    -0.27200
C1466       C  0.25439221  0.85704919  0.78526315     0.18800
C1467       C  0.35396794  0.93363198  0.77478847     0.12800
C1468       C  0.32750399  0.96935604  0.80732745    -0.11600
H1469       H  0.25518263  0.92414567  0.81810199     0.13000
C1470       C  0.23191794  0.81735358  0.77797289    -0.22400
H1471       H  0.30089982  0.86470918  0.76510049     0.08700
C1472       C  0.38184796  0.92434450  0.78060736     0.05000
C1473       C  0.41701532  0.94235462  0.77008057    -0.19700
C1474       C  0.42488736  0.96923644  0.75370468    -0.11900
C1475       C  0.39720407  0.97970480  0.74883060     0.13700
C1476       C  0.36231792  0.96158705  0.75930490    -0.22400
C1477       C  0.37443629  0.89545258  0.79790953    -0.05500
H1478       H  0.43794144  0.93435498  0.77403737     0.15300
C1479       C  0.40266871  0.00968565  0.73276436    -0.15600
H1480       H  0.34099283  0.96890543  0.75500698     0.09600
H1481       H  0.24724796  0.80213416  0.78209433     0.07400
H1482       H  0.22771954  0.81648892  0.75997599     0.08600
H1483       H  0.20429730  0.80253604  0.78581091     0.07700
H1484       H  0.33704169  0.98970963  0.79365288     0.02600
H1485       H  0.35221523  0.97015399  0.81540066     0.03000
H1486       H  0.31311444  0.97796347  0.81952302     0.06500
H1487       H  0.39940437  0.89208928  0.80087682     0.05500
H1488       H  0.35111428  0.86818517  0.79273418    -0.00200
H1489       H  0.36681730  0.90376131  0.81354378     0.01200
H1490       H  0.38044809  0.99804226  0.72008481     0.04900
H1491       H  0.42975962  0.02185464  0.72430713     0.06800
H1492       H  0.40072921  0.03229055  0.74144629     0.06300
C1493       C  0.06812502  0.87248993  0.79882300    -0.21900
C1494       C  0.08795098  0.90229087  0.78452917     0.10100
C1495       C  0.12547288  0.91295473  0.77928045     0.10500
C1496       C  0.14263798  0.89408080  0.78903571    -0.16800
C1497       C  0.12315090  0.86495230  0.80398840    -0.27200
C1498       C  0.08485101  0.85321702  0.80827279     0.18800
C1499       C  0.06826859  0.92111695  0.77488389     0.12800
C1500       C  0.14723867  0.94411556  0.76335701    -0.11600
H1501       H  0.17174140  0.90284553  0.78551909     0.13000
C1502       C  0.06009271  0.81982254  0.82203809    -0.22400
H1503       H  0.03906621  0.86387622  0.80243672     0.08700
C1504       C  0.04153700  0.90434327  0.75815184     0.05000
C1505       C  0.02354145  0.92306326  0.74955842    -0.19700
C1506       C  0.03304002  0.95917870  0.75632705    -0.11900
C1507       C  0.05867930  0.97527262  0.77392508     0.13700
C1508       C  0.07582206  0.95584354  0.78296282    -0.22400
C1509       C  0.03319938  0.86741679  0.74866586    -0.05500
H1510       H  0.00322199  0.91016839  0.73656874     0.15300
C1511       C  0.06975957  0.01334358  0.78275606    -0.15600
H1512       H  0.09584177  0.96807414  0.79617136     0.09600
H1513       H  0.03611266  0.79964958  0.81206171     0.07400
H1514       H  0.04918786  0.82844653  0.83621527     0.08600
H1515       H  0.07482049  0.80538396  0.82823670     0.07700
H1516       H  0.14957494  0.97035399  0.76968385     0.02600
H1517       H  0.13270102  0.93756768  0.74729336     0.03000
H1518       H  0.17597981  0.94850254  0.76076922     0.06500
H1519       H  0.01259198  0.85893549  0.73509414     0.05500
H1520       H  0.02150164  0.84556475  0.76150431    -0.00200
H1521       H  0.05933984  0.86925430  0.74207059     0.01200
H1522       H  0.04576542  0.01321363  0.79117774     0.04900
H1523       H  0.08001843  0.03423374  0.76943451     0.06800
H1524       H  0.09259104  0.52235485  0.79501086     0.07700
C1525       C  0.08799740  0.70780748  0.77764789    -0.21900
C1526       C  0.10073837  0.68337116  0.78436979     0.10100
C1527       C  0.13181552  0.69618153  0.79847217     0.10500
C1528       C  0.14866320  0.73284402  0.80604133    -0.16800
C1529       C  0.13402613  0.75656334  0.80090134    -0.27200
C1530       C  0.10374373  0.74404527  0.78597258     0.18800
C1531       C  0.08183203  0.64491425  0.77576814     0.12800
C1532       C  0.14622618  0.67078551  0.80629255    -0.11600
H1533       H  0.17248066  0.74259647  0.81695817     0.13000
C1534       C  0.08572289  0.76679844  0.77924343    -0.22400
H1535       H  0.06465390  0.69804342  0.76634791     0.08700
C1536       C  0.04588161  0.61784807  0.78287356     0.05000
C1537       C  0.02801922  0.58291460  0.77257919    -0.19700
C1538       C  0.04498193  0.57491568  0.75496909    -0.11900
C1539       C  0.08256802  0.60129193  0.74932412     0.13700
C1540       C  0.10005706  0.63588608  0.75961880    -0.22400
C1541       C  0.02630610  0.62606990  0.80110690    -0.05500
H1542       H  0.49979307  0.56269924  0.77736687     0.15300
C1543       C  0.10589126  0.59459816  0.73279425    -0.15600
H1544       H  0.12807700  0.65646220  0.75463251     0.09600
H1545       H  0.05552248  0.75161948  0.78354479     0.07400
H1546       H  0.08856678  0.77148735  0.76126722     0.08600
H1547       H  0.09793151  0.79397592  0.78733963     0.07700
H1548       H  0.15633670  0.66119957  0.79220668     0.02600
H1549       H  0.12343364  0.64635353  0.81476273     0.03000
H1550       H  0.16981683  0.68495159  0.81797280     0.06500
H1551       H  0.49869383  0.60169950  0.80495004     0.05500
H1552       H  0.02159691  0.64946921  0.79636470    -0.00200
H1553       H  0.04377165  0.63365665  0.81612975     0.01200
H1554       H  0.11622753  0.61676622  0.72010868     0.04900
H1555       H  0.09050021  0.56782336  0.72439593     0.06800
H1556       H  0.13038993  0.59532802  0.74110061     0.07700
C1557       C  0.11601685  0.69839168  0.59596163    -0.21900
C1558       C  0.09232876  0.70004639  0.58001069     0.10100
C1559       C  0.08463975  0.72979474  0.57980709     0.10500
C1560       C  0.10184234  0.75798253  0.59531855    -0.16800
C1561       C  0.12714942  0.75753553  0.61069178    -0.27200
C1562       C  0.13428453  0.72713234  0.61104328     0.18800
C1563       C  0.07773828  0.67139213  0.56288884     0.12800
C1564       C  0.05939344  0.73247527  0.56277959    -0.11600
H1565       H  0.09631486  0.78114112  0.59505156     0.13000
C1566       C  0.16245062  0.72473101  0.62583995    -0.22400
H1567       H  0.12170319  0.67530219  0.59592779     0.08700
C1568       C  0.10098614  0.67154466  0.54581326     0.05000
C1569       C  0.08627858  0.64311266  0.53026557    -0.19700
C1570       C  0.04880166  0.61487744  0.53129101    -0.11900
C1571       C  0.02537859  0.61517667  0.54829418     0.13700
C1572       C  0.04032116  0.64348326  0.56395205    -0.22400
C1573       C  0.14117149  0.70182669  0.54391828    -0.05500
H1574       H  0.10414179  0.64289109  0.51723234     0.15300
C1575       C  0.98517313  0.58510628  0.55064919    -0.15600
H1576       H  0.02290948  0.64372848  0.57725163     0.09600
H1577       H  0.18371654  0.72218748  0.61581970     0.07400
H1578       H  0.14812301  0.69993814  0.63656627     0.08600
H1579       H  0.17748219  0.74933073  0.63624604     0.07700
H1580       H  0.03086172  0.70824290  0.56420052     0.02600
H1581       H  0.07065827  0.73295120  0.54617652     0.03000
H1582       H  0.05713055  0.75808230  0.56473395     0.06500
H1583       H  0.15503288  0.69817881  0.52923465     0.05500
H1584       H  0.15718402  0.70162571  0.55854123    -0.00200
H1585       H  0.14236724  0.72924903  0.54261228     0.01200
H1586       H  0.48368603  0.55754029  0.55181538     0.04900
H1587       H  0.46861344  0.58564554  0.53639415     0.06800
H1588       H  0.97196530  0.58887611  0.56560093     0.07700
C1589       C  0.27406990  0.86397576  0.57599053    -0.21900
C1590       C  0.29992274  0.90151875  0.57858126     0.10100
C1591       C  0.29646752  0.92141056  0.59630583     0.10500
C1592       C  0.26628341  0.90320113  0.61086557    -0.16800
C1593       C  0.24018437  0.86534213  0.60836227    -0.27200
C1594       C  0.24479025  0.84536586  0.59085559     0.18800
C1595       C  0.33075464  0.91863380  0.56257698     0.12800
C1596       C  0.32446039  0.96172271  0.59971831    -0.11600
H1597       H  0.26268361  0.91872210  0.62403250     0.13000
C1598       C  0.22078081  0.80419672  0.58767950    -0.22400
H1599       H  0.27741712  0.84878587  0.56250329     0.08700
C1600       C  0.36321049  0.91527787  0.56496879     0.05000
C1601       C  0.39018686  0.92861518  0.54832643    -0.19700
C1602       C  0.38531325  0.94495785  0.52926567    -0.11900
C1603       C  0.35221565  0.94752662  0.52669043     0.13700
C1604       C  0.32556519  0.93470559  0.54358019    -0.22400
C1605       C  0.36923642  0.89748658  0.58504913    -0.05500
H1606       H  0.41554267  0.92673995  0.55035458     0.15300
C1607       C  0.34299706  0.96171224  0.50610049    -0.15600
H1608       H  0.29993314  0.93610738  0.54162209     0.09600
H1609       H  0.23881454  0.79107130  0.58638793     0.07400
H1610       H  0.20406691  0.79863846  0.57245284     0.08600
H1611       H  0.20195121  0.79075903  0.60156273     0.07700
H1612       H  0.32469916  0.97818225  0.58523477     0.02600
H1613       H  0.35281506  0.96495450  0.60198412     0.03000
H1614       H  0.31767647  0.97310832  0.61441404     0.06500
H1615       H  0.39627453  0.89731540  0.58434860     0.05500
H1616       H  0.34642581  0.86829436  0.58651540    -0.00200
H1617       H  0.36936943  0.91301692  0.59988209     0.01200
H1618       H  0.31538065  0.94028740  0.49980337     0.04900
H1619       H  0.36345910  0.96785587  0.49273730     0.06800
H1620       H  0.34146141  0.48726341  0.50982717     0.07700
C1621       C  0.09813965  0.95199529  0.56358509    -0.21900
C1622       C  0.08920809  0.91481085  0.56128578     0.10100
C1623       C  0.06641879  0.89378975  0.54369319     0.10500
C1624       C  0.05265096  0.91043243  0.52894340    -0.16800
C1625       C  0.06187175  0.94787470  0.53101989    -0.27200
C1626       C  0.08526435  0.96903330  0.54855511     0.18800
C1627       C  0.10460415  0.89875405  0.57734454     0.12800
C1628       C  0.05730804  0.85409965  0.54016789    -0.11600
H1629       H  0.03489757  0.89419467  0.51554313     0.13000
C1630       C  0.09605659  0.50921787  0.55203077    -0.22400
H1631       H  0.11546207  0.96779731  0.57724126     0.08700
C1632       C  0.14312011  0.90973575  0.57774356     0.05000
C1633       C  0.15637680  0.89371776  0.59316339    -0.19700
C1634       C  0.13204629  0.86666670  0.60797037    -0.11900
C1635       C  0.09328276  0.85475683  0.60713333     0.13700
C1636       C  0.08022580  0.87175412  0.59220391    -0.22400
C1637       C  0.17012233  0.93757423  0.56156547    -0.05500
H1638       H  0.18595903  0.90215914  0.59360937     0.15300
C1639       C  0.06479472  0.82323839  0.62090054    -0.15600
H1640       H  0.05062427  0.86319438  0.59175178     0.09600
H1641       H  0.11345244  0.52633172  0.53813756     0.07400
H1642       H  0.11278553  0.52052915  0.56718871     0.08600
H1643       H  0.07053203  0.51206852  0.55350859     0.07700
H1644       H  0.04108461  0.83661925  0.55425241     0.02600
H1645       H  0.08361213  0.85272295  0.53840738     0.03000
H1646       H  0.04032069  0.84222448  0.52515939     0.06500
H1647       H  0.19888331  0.94172607  0.56366037     0.05500
H1648       H  0.17146067  0.96486476  0.56381754    -0.00200
H1649       H  0.16085545  0.92766497  0.54462342     0.01200
H1650       H  0.05039993  0.83369205  0.63187786     0.04900
H1651       H  0.07718895  0.80967585  0.63102092     0.06800
H1652       H  0.04372720  0.80157349  0.61004691     0.07700
C1653       C  0.12233565  0.70859735  0.68448892    -0.21900
C1654       C  0.08565482  0.68474064  0.67753547     0.10100
C1655       C  0.06799861  0.69808004  0.66310909     0.10500
C1656       C  0.08820928  0.73443853  0.65505238    -0.16800
C1657       C  0.12610993  0.75751064  0.66042956    -0.27200
C1658       C  0.14299217  0.74477115  0.67604528     0.18800
C1659       C  0.06599216  0.64622667  0.68609854     0.12800
C1660       C  0.02836847  0.67355726  0.65552945    -0.11600
H1661       H  0.07485130  0.74444478  0.64359947     0.13000
C1662       C  0.18309490  0.76711237  0.68326322    -0.22400
H1663       H  0.13536988  0.69843789  0.69608904     0.08700
C1664       C  0.07443743  0.61866600  0.67884101     0.05000
C1665       C  0.05688495  0.58343469  0.68889037    -0.19700
C1666       C  0.03189725  0.57564103  0.70639779    -0.11900
C1667       C  0.02113747  0.60257098  0.71218863     0.13700
C1668       C  0.03877526  0.63749997  0.70216784    -0.22400
C1669       C  0.10228926  0.62664099  0.66073479    -0.05500
H1670       H  0.06449471  0.56274895  0.68400941     0.15300
C1671       C  0.99110052  0.59613306  0.72860152    -0.15600
H1672       H  0.03167898  0.65849417  0.70724487     0.09600
H1673       H  0.19839738  0.75187882  0.67920467     0.07400
H1674       H  0.18412745  0.77135815  0.70124537     0.08600
H1675       H  0.19798260  0.79453286  0.67535414     0.07700
H1676       H  0.00895063  0.66495281  0.66970426     0.02600
H1677       H  0.02612710  0.64849310  0.64743119     0.03000
H1678       H  0.01937290  0.68807793  0.64362336     0.06500
H1679       H  0.10515672  0.60188413  0.65677840     0.05500
H1680       H  0.13020085  0.64930610  0.66571164    -0.00200
H1681       H  0.09300525  0.63511008  0.64572223     0.01200
H1682       H  0.00280144  0.61778237  0.74148155     0.04900
H1683       H  0.47920137  0.56895761  0.73677295     0.06800
H1684       H  0.46796765  0.59801516  0.72024498     0.07700
C1685       C  0.30525936  0.86999852  0.66420396    -0.21900
C1686       C  0.31578392  0.90099638  0.67751541     0.10100
C1687       C  0.28954891  0.91310524  0.68200517     0.10500
C1688       C  0.25386455  0.89481326  0.67218422    -0.16800
C1689       C  0.24380547  0.86453608  0.65814775    -0.27200
C1690       C  0.26950221  0.85110362  0.65492133     0.18800
C1691       C  0.35439738  0.92004301  0.68661006     0.12800
C1692       C  0.29919529  0.94516238  0.69722134    -0.11600
H1693       H  0.23418500  0.90486857  0.67492438     0.13000
C1694       C  0.26018594  0.81648024  0.64223308    -0.22400
H1695       H  0.32514056  0.86028470  0.66111724     0.08700
C1696       C  0.36535843  0.90400207  0.70351066     0.05000
C1697       C  0.40187143  0.92350981  0.71186168    -0.19700
C1698       C  0.42719742  0.95984830  0.70485187    -0.11900
C1699       C  0.41651945  0.97520617  0.68716689     0.13700
C1700       C  0.38056105  0.95467651  0.67805327    -0.22400
C1701       C  0.33806494  0.86709205  0.71347199    -0.05500
H1702       H  0.41006145  0.91111013  0.72493317     0.15300
C1703       C  0.44049332  0.51388689  0.67836505    -0.15600
H1704       H  0.37220747  0.96658144  0.66476653     0.09600
H1705       H  0.26385468  0.79662564  0.65290040     0.07400
H1706       H  0.27914877  0.82353223  0.62789471     0.08600
H1707       H  0.23106325  0.80228287  0.63643420     0.07700
H1708       H  0.32311663  0.97080025  0.69053863     0.02600
H1709       H  0.30687510  0.93896033  0.71354433     0.03000
H1710       H  0.27526951  0.95046875  0.69939994     0.06500
H1711       H  0.35080880  0.85934480  0.72717387     0.05500
H1712       H  0.32860536  0.84493696  0.70094164    -0.00200
H1713       H  0.31346268  0.86848321  0.72001177     0.01200
H1714       H  0.44766891  0.51249319  0.66099474     0.04900
H1715       H  0.46649987  0.52993882  0.68760439     0.06800
H1716       H  0.42482923  0.52952710  0.67929426     0.07700
C1717       C  0.09747168  0.95857036  0.70003624    -0.21900
C1718       C  0.07747497  0.93086227  0.68470136     0.10100
C1719       C  0.04016407  0.92168709  0.67984407     0.10500
C1720       C  0.02354257  0.94002086  0.69088565    -0.16800
C1721       C  0.04314625  0.96697724  0.70694769    -0.27200
C1722       C  0.08117533  0.97685764  0.71108709     0.18800
C1723       C  0.09614613  0.91115777  0.67473572     0.12800
C1724       C  0.01796692  0.89256866  0.66302991    -0.11600
H1725       H  0.49465100  0.93232852  0.68752415     0.13000
C1726       C  0.10609018  0.00647267  0.72688918    -0.22400
H1727       H  0.12614425  0.96566884  0.70369238     0.08700
C1728       C  0.12511940  0.92838539  0.65915398     0.05000
C1729       C  0.14316764  0.90921337  0.65120449    -0.19700
C1730       C  0.13204144  0.87242791  0.65762868    -0.11900
C1731       C  0.10287001  0.85534300  0.67337720     0.13700
C1732       C  0.08601101  0.87521891  0.68196579    -0.22400
C1733       C  0.13622001  0.96655581  0.65037979    -0.05500
H1734       H  0.16548581  0.92269850  0.63930504     0.15300
C1735       C  0.08704159  0.81580501  0.68090303    -0.15600
H1736       H  0.06405017  0.86218842  0.69414567     0.09600
H1737       H  0.13026174  0.52881882  0.71796833     0.07400
H1738       H  0.11671061  0.99436116  0.73942652     0.08600
H1739       H  0.09155479  0.51901277  0.73544895     0.07700
H1740       H  0.01481010  0.86536465  0.66820706     0.02600
H1741       H  0.03265859  0.90060397  0.64700602     0.03000
H1742       H  0.48953791  0.88922447  0.66084073     0.06500
H1743       H  0.15843156  0.97541742  0.63770640     0.05500
H1744       H  0.14700428  0.98716019  0.66382741    -0.00200
H1745       H  0.11152295  0.96655258  0.64282187     0.01200
H1746       H  0.09136660  0.81505946  0.69880687     0.04900
H1747       H  0.09982353  0.80128728  0.67264094     0.06800
H1748       H  0.05656880  0.80029020  0.67736085     0.07700
C1749       C  0.66848515  0.33206027  0.65631353     0.46000
H1750       H  0.66904791  0.33337541  0.67447726    -0.03000
C1751       C  0.66737819  0.32941340  0.61372092     0.46100
H1752       H  0.66677976  0.32849140  0.59552478    -0.03000
C1753       C  0.64862583  0.35209685  0.64554148    -0.16700
C1754       C  0.70798715  0.34962502  0.64557837    -0.16500
C1755       C  0.64764073  0.29195523  0.64703523    -0.16800
C1756       C  0.64840580  0.35021781  0.62305068    -0.16800
C1757       C  0.70688273  0.34838850  0.62307750    -0.16400
C1758       C  0.64738187  0.29112946  0.62452353    -0.16700
C1759       C  0.66560037  0.33150618  0.80412493     0.46000
H1760       H  0.66478058  0.33252851  0.78597019    -0.03000
C1761       C  0.66790989  0.32958101  0.84667971     0.46100
H1762       H  0.66913008  0.32880983  0.86486800    -0.03000
C1763       C  0.70592901  0.35218174  0.81365408    -0.16700
C1764       C  0.64419741  0.34910488  0.81577862    -0.16500
C1765       C  0.64808439  0.29156090  0.81384605    -0.16800
C1766       C  0.70622403  0.35057136  0.83611441    -0.16800
C1767       C  0.64653467  0.34845743  0.83823269    -0.16400
C1768       C  0.64935208  0.29133164  0.83633101    -0.16700
C1769       C  0.50202525  0.00147618  0.70910979     0.46000
H1770       H  0.50320793  0.00145304  0.69094973    -0.03000
C1771       C  0.99986343  0.00125349  0.75181998     0.46100
H1772       H  0.99800946  0.00089290  0.76988910    -0.03000
C1773       C  0.52229668  0.48212559  0.71995746    -0.16700
C1774       C  0.51987788  0.04071925  0.71933963    -0.16500
C1775       C  0.96186561  0.48155625  0.71839137    -0.16800
C1776       C  0.51945469  0.48042172  0.74254090    -0.16800
C1777       C  0.52197502  0.04049851  0.74179564    -0.16400
C1778       C  0.96070972  0.48333433  0.74090581    -0.16700
C1779       C  0.83606430  0.17552770  0.30227187     0.46000
H1780       H  0.83616932  0.17804985  0.28442923    -0.03000
C1781       C  0.83745905  0.17129789  0.34466906     0.46100
H1782       H  0.83826163  0.17003056  0.36283979    -0.03000
C1783       C  0.79651328  0.15384697  0.31288460    -0.16700
C1784       C  0.85781416  0.15591040  0.31047451    -0.16500
C1785       C  0.85480456  0.21368516  0.31376010    -0.16800
C1786       C  0.79806331  0.15229531  0.33548425    -0.16800
C1787       C  0.85749904  0.15330209  0.33302321    -0.16400
C1788       C  0.85542463  0.21084408  0.33610250    -0.16700
C1789       C  0.83143687  0.17099576  0.11296215     0.46000
H1790       H  0.82954187  0.17276839  0.09495970    -0.03000
C1791       C  0.83439532  0.16752197  0.15542968     0.46100
H1792       H  0.83574578  0.16634452  0.17355748    -0.03000
C1793       C  0.79374121  0.14445338  0.12328503    -0.16700
C1794       C  0.85821126  0.15735080  0.12089563    -0.16500
C1795       C  0.84454486  0.20829964  0.12418752    -0.16800
C1796       C  0.79475240  0.14259747  0.14582439    -0.16800
C1797       C  0.85988594  0.15518053  0.14343122    -0.16400
C1798       C  0.84663019  0.20690731  0.14648241    -0.16700
C1799       C  0.50097939  0.99808381  0.20713429     0.46000
H1800       H  0.50113135  0.99639387  0.18899602    -0.03000
C1801       C  0.50139182  0.00302614  0.24978921     0.46100
H1802       H  0.50152405  0.00523221  0.26790889    -0.03000
C1803       C  0.98434189  0.02231705  0.21583179    -0.16700
C1804       C  0.97908815  0.45984535  0.21881604    -0.16500
C1805       C  0.54043831  0.01553086  0.21710802    -0.16800
C1806       C  0.98457196  0.02474002  0.23831856    -0.16800
C1807       C  0.97733228  0.46302495  0.24128512    -0.16400
C1808       C  0.54089934  0.01783015  0.23951133    -0.16700
Zn1809     Zn  0.52084701  0.46967248  0.99170861     1.49700
Zn1810     Zn  0.50153759  0.00015083  0.94847949     1.49400
Zn1811     Zn  0.94693243  0.47799765  0.98914046     1.49100
Zn1812     Zn  0.52777347  0.05086079  0.98991138     1.49500
O1813       O  0.49923909  0.99949671  0.98002271    -1.83600
O1814       O  0.53911461  0.44890534  0.96743156    -0.74200
O1815       O  0.95121232  0.47992087  0.93521493    -0.74000
O1816       O  0.93231614  0.43413977  0.00898132    -0.73500
O1817       O  0.52331796  0.46950940  0.93786015    -0.74200
O1818       O  0.98297278  0.42725787  0.01004798    -0.73800
O1819       O  0.91176118  0.46248501  0.96325894    -0.74400
O1820       O  0.99532736  0.06546004  0.00676335    -0.73800
O1821       O  0.53298593  0.05095222  0.93637076    -0.74600
O1822       O  0.93969643  0.01435144  0.00721346    -0.73900
O1823       O  0.55314205  0.08761157  0.96538302    -0.74400
O1824       O  0.56690242  0.05589734  0.01107202    -0.74300
O1825       O  0.56327537  0.00031499  0.01232354    -0.74100
C1826       C  0.53705975  0.45093976  0.94668471     0.77700
C1827       C  0.91818871  0.46582430  0.94273688     0.78200
C1828       C  0.94967085  0.41766101  0.01599102     0.77100
C1829       C  0.96155092  0.04753114  0.01321298     0.77500
C1830       C  0.55240548  0.08284479  0.94478436     0.78600
C1831       C  0.57745108  0.03382282  0.01873394     0.77700
Zn1832     Zn  0.97232036  0.02757326  0.48784382     1.49700
Zn1833     Zn  0.97688516  0.45192265  0.48959192     1.49400
Zn1834     Zn  0.50420158  0.00363965  0.44798937     1.49100
Zn1835     Zn  0.55276039  0.03085405  0.49063241     1.49500
O1836       O  0.50152349  0.00347197  0.47936659    -1.83600
O1837       O  0.92738378  0.49306927  0.50564859    -0.74200
O1838       O  0.95696247  0.41542911  0.46426356    -0.74000
O1839       O  0.98142720  0.03123044  0.43464636    -0.73500
O1840       O  0.93321734  0.44239490  0.50887978    -0.74200
O1841       O  0.95620227  0.04702821  0.46177346    -0.73800
O1842       O  0.97717872  0.45321343  0.43556303    -0.74400
O1843       O  0.59198427  0.05244904  0.46645249    -0.73800
O1844       O  0.51216376  0.44227537  0.50822261    -0.74600
O1845       O  0.55615851  0.02851034  0.43728287    -0.73900
O1846       O  0.56360804  0.49733735  0.50973067    -0.74400
O1847       O  0.55810654  0.07250074  0.50976501    -0.74300
O1848       O  0.50279097  0.07021755  0.50774429    -0.74100
C1849       C  0.91646962  0.46070870  0.51339573     0.77700
C1850       C  0.95909604  0.42083112  0.44361824     0.78200
C1851       C  0.96338244  0.04682827  0.44150137     0.77100
C1852       C  0.58820471  0.04792523  0.44580837     0.77500
C1853       C  0.54514236  0.46333185  0.51539971     0.78600
C1854       C  0.53585180  0.08436799  0.51532040     0.77700
C1855       C  0.63261796  0.04553389  0.07092770    -0.21900
C1856       C  0.66478527  0.07935329  0.06651281     0.10100
C1857       C  0.66817878  0.09796214  0.04654272     0.10500
C1858       C  0.63913750  0.08213783  0.03126095    -0.16800
C1859       C  0.60698457  0.04804709  0.03545708    -0.27200
C1860       C  0.60326664  0.02975678  0.05575278     0.18800
C1861       C  0.69580642  0.09390429  0.08235300     0.12800
C1862       C  0.70249164  0.13445249  0.04138108    -0.11600
H1863       H  0.64165700  0.09628611  0.01583696     0.13000
C1864       C  0.56847194  0.99467100  0.06247090    -0.22400
H1865       H  0.63031326  0.03154943  0.08638869     0.08700
C1866       C  0.69747134  0.11631688  0.10011668     0.05000
C1867       C  0.72927029  0.13167453  0.11357168    -0.19700
C1868       C  0.75955857  0.12546686  0.10938978    -0.11900
C1869       C  0.75719798  0.10225810  0.09163630     0.13700
C1870       C  0.72515949  0.08658760  0.07854361    -0.22400
C1871       C  0.66610414  0.12459436  0.10448978    -0.05500
H1872       H  0.73082213  0.14921686  0.12714457     0.15300
C1873       C  0.78738092  0.09257423  0.08652039    -0.15600
H1874       H  0.72325007  0.06912956  0.06481871     0.09600
H1875       H  0.55778094  0.99946402  0.07814732     0.07400
H1876       H  0.57537361  0.97199749  0.06491201     0.08600
H1877       H  0.54538463  0.98533161  0.05047789     0.07700
H1878       H  0.72762949  0.13079899  0.04119751     0.02600
H1879       H  0.70615996  0.15529229  0.05398377     0.03000
H1880       H  0.70033630  0.14546999  0.02513943     0.06500
H1881       H  0.67233835  0.14342858  0.11869518     0.05500
H1882       H  0.63992839  0.09834733  0.10798454    -0.00200
H1883       H  0.66174893  0.13828090  0.08995438     0.01200
H1884       H  0.77862409  0.07107567  0.07358325     0.04900
H1885       H  0.79391533  0.08124018  0.10128719     0.06800
H1886       H  0.81265215  0.11720479  0.08027960     0.07700
C1887       C  0.90615808  0.36540526  0.06856505    -0.21900
C1888       C  0.89948598  0.32979169  0.06310825     0.10100
C1889       C  0.90814681  0.32268545  0.04192537     0.10500
C1890       C  0.92425259  0.35188864  0.02669285    -0.16800
C1891       C  0.93135488  0.38771556  0.03220866    -0.27200
C1892       C  0.92220648  0.39462975  0.05341694     0.18800
C1893       C  0.88540176  0.30085154  0.08025261     0.12800
C1894       C  0.90063073  0.28440328  0.03553978    -0.11600
H1895       H  0.93141008  0.34682250  0.01045131     0.13000
C1896       C  0.93039387  0.43262532  0.06103003    -0.22400
H1897       H  0.89971830  0.37063129  0.08496408     0.08700
C1898       C  0.91030441  0.29601634  0.09406387     0.05000
C1899       C  0.89595344  0.26703052  0.10936397    -0.19700
C1900       C  0.85737152  0.24280796  0.11115983    -0.11900
C1901       C  0.83237618  0.24904890  0.09815214     0.13700
C1902       C  0.84674659  0.27784516  0.08264660    -0.22400
C1903       C  0.95203159  0.32074856  0.09220898    -0.05500
H1904       H  0.91517382  0.26205184  0.11907008     0.15300
C1905       C  0.79057172  0.22615692  0.10041742    -0.15600
H1906       H  0.82773173  0.28226712  0.07227521     0.09600
H1907       H  0.94899426  0.44064372  0.07557764     0.07400
H1908       H  0.90382358  0.43189410  0.06570014     0.08600
H1909       H  0.94450843  0.45462369  0.04851251     0.07700
H1910       H  0.87028126  0.26444795  0.03718785     0.02600
H1911       H  0.91657166  0.27539794  0.04634232     0.03000
H1912       H  0.90900092  0.28364057  0.01833639     0.06500
H1913       H  0.96742759  0.31294885  0.10423054     0.05500
H1914       H  0.95928462  0.35000039  0.09531951    -0.00200
H1915       H  0.96158056  0.31860070  0.07554201     0.01200
H1916       H  0.77850820  0.24472717  0.10339064     0.04900
H1917       H  0.78235892  0.20670789  0.11441701     0.06800
H1918       H  0.77841650  0.21018612  0.08516992     0.07700
C1919       C  0.91023760  0.14714772  0.07195859    -0.21900
C1920       C  0.90240227  0.11046667  0.07467303     0.10100
C1921       C  0.88161598  0.08960614  0.09286662     0.10500
C1922       C  0.86809116  0.10585213  0.10780143    -0.16800
C1923       C  0.87541606  0.14266171  0.10511310    -0.27200
C1924       C  0.89722897  0.16375319  0.08698016     0.18800
C1925       C  0.91739003  0.09491002  0.05849644     0.12800
C1926       C  0.87362868  0.05024943  0.09641368    -0.11600
H1927       H  0.85103391  0.08945151  0.12143648     0.13000
C1928       C  0.90895054  0.20417809  0.08373791    -0.22400
H1929       H  0.92693798  0.16290217  0.05803060     0.08700
C1930       C  0.89739361  0.07749073  0.03936412     0.05000
C1931       C  0.91275257  0.06258570  0.02466216    -0.19700
C1932       C  0.94763003  0.06500600  0.02875692    -0.11900
C1933       C  0.96750505  0.08240945  0.04813520     0.13700
C1934       C  0.95227848  0.09774125  0.06254447    -0.22400
C1935       C  0.85993566  0.07460762  0.03459786    -0.05500
H1936       H  0.89753036  0.04899617  0.00991636     0.15300
C1937       C  0.50361668  0.08372684  0.05497490    -0.15600
H1938       H  0.96721216  0.11108451  0.07742692     0.09600
H1939       H  0.92831943  0.21639582  0.06962230     0.07400
H1940       H  0.92404594  0.21996542  0.09842010     0.08600
H1941       H  0.88458472  0.20805665  0.08028140     0.07700
H1942       H  0.90035764  0.04967893  0.09812073     0.02600
H1943       H  0.85780389  0.03285039  0.08226100     0.03000
H1944       H  0.85680395  0.03788491  0.11146264     0.06500
H1945       H  0.84800711  0.55999943  0.01893093     0.05500
H1946       H  0.86301779  0.10283801  0.03343006    -0.00200
H1947       H  0.83990791  0.05898566  0.04793443     0.01200
H1948       H  0.52641190  0.11304143  0.05536890     0.04900
H1949       H  0.51230210  0.06773111  0.04426865     0.06800
H1950       H  0.50024840  0.07166320  0.07165509     0.07700
C1951       C  0.86331195  0.29505476  0.17566598    -0.21900
C1952       C  0.90262991  0.31449984  0.17642525     0.10100
C1953       C  0.92263906  0.29658570  0.16909433     0.10500
C1954       C  0.90289959  0.25961506  0.16200900    -0.16800
C1955       C  0.86390178  0.24121099  0.15987059    -0.27200
C1956       C  0.84379509  0.25921815  0.16664700     0.18800
C1957       C  0.92237204  0.35240042  0.18625936     0.12800
C1958       C  0.96476452  0.31700303  0.16722731    -0.11600
H1959       H  0.91819420  0.24590167  0.15641956     0.13000
C1960       C  0.80200164  0.24183369  0.16411654    -0.22400
H1961       H  0.84773456  0.30817865  0.18171151     0.08700
C1962       C  0.92132327  0.38359953  0.17728978     0.05000
C1963       C  0.94086035  0.41840453  0.18783534    -0.19700
C1964       C  0.96229895  0.42313570  0.20682076    -0.11900
C1965       C  0.96559770  0.39206904  0.21434579     0.13700
C1966       C  0.94399034  0.35721005  0.20486919    -0.22400
C1967       C  0.90028445  0.38047894  0.15645525    -0.05500
H1968       H  0.93873505  0.44179925  0.18143333     0.15300
C1969       C  0.99286811  0.39403084  0.23141081    -0.15600
H1970       H  0.94504584  0.33343815  0.21175737     0.09600
H1971       H  0.78937154  0.21426241  0.15617761     0.07400
H1972       H  0.79533313  0.26009808  0.15383391     0.08600
H1973       H  0.78885889  0.23849485  0.18046544     0.07700
H1974       H  0.97799591  0.32480386  0.18357995     0.02600
H1975       H  0.97388712  0.34239919  0.15709710     0.03000
H1976       H  0.97528945  0.29969905  0.15926149     0.06500
H1977       H  0.90381493  0.40781623  0.15119385     0.05500
H1978       H  0.86994510  0.36140724  0.15883729    -0.00200
H1979       H  0.91084467  0.36976478  0.14313306     0.01200
H1980       H  0.97775598  0.37488079  0.24516156     0.04900
H1981       H  0.00959739  0.42199157  0.23775916     0.06800
H1982       H  0.01243798  0.38559263  0.22411635     0.07700
C1983       C  0.93413126  0.12736314  0.15703344    -0.21900
C1984       C  0.91494976  0.09828983  0.17202601     0.10100
C1985       C  0.88018235  0.09236977  0.18039523     0.10500
C1986       C  0.86303392  0.11167829  0.17107734    -0.16800
C1987       C  0.88138923  0.13937539  0.15509480    -0.27200
C1988       C  0.91877332  0.14926837  0.14951634     0.18800
C1989       C  0.93428082  0.07824433  0.18086014     0.12800
C1990       C  0.86252497  0.06795561  0.20016584    -0.11600
H1991       H  0.83517271  0.10509042  0.17632954     0.13000
C1992       C  0.94396549  0.18378969  0.13668460    -0.22400
H1993       H  0.96208439  0.13406841  0.15185794     0.08700
C1994       C  0.92102398  0.03987372  0.17745328     0.05000
C1995       C  0.93832002  0.02213082  0.18856194    -0.19700
C1996       C  0.97033068  0.04245256  0.20149220    -0.11900
C1997       C  0.98664049  0.08166286  0.20194867     0.13700
C1998       C  0.96777663  0.09877240  0.19235946    -0.22400
C1999       C  0.89041655  0.01824162  0.16112529    -0.05500
H2000       H  0.92661742  0.49234446  0.18731311     0.15300
C2001       C  0.52436939  0.10659476  0.21183709    -0.15600
H2002       H  0.97943795  0.12858591  0.19384704     0.09600
H2003       H  0.95213153  0.17617007  0.12100772     0.07400
H2004       H  0.96969056  0.20112714  0.14630551     0.08600
H2005       H  0.93070743  0.20113871  0.13337516     0.07700
H2006       H  0.88251811  0.07836779  0.21405393     0.02600
H2007       H  0.85520683  0.03883495  0.19695327     0.03000
H2008       H  0.83657874  0.06814939  0.20527967     0.06500
H2009       H  0.88428297  0.48892346  0.16006442     0.05500
H2010       H  0.89945787  0.03108555  0.14467027    -0.00200
H2011       H  0.86413830  0.01813748  0.16545233     0.01200
H2012       H  0.53715858  0.09101395  0.21935768     0.04900
H2013       H  0.54366386  0.12477129  0.19886329     0.06800
H2014       H  0.02170420  0.12453080  0.22438145     0.07700
C2015       C  0.63587096  0.03499116  0.19675820    -0.21900
C2016       C  0.64901864  0.06968000  0.18668314     0.10100
C2017       C  0.62377136  0.08347127  0.18319526     0.10500
C2018       C  0.58773549  0.06459832  0.19260205    -0.16800
C2019       C  0.57554645  0.03092568  0.20389015    -0.27200
C2020       C  0.59911046  0.01481532  0.20443910     0.18800
C2021       C  0.68792031  0.08825851  0.17792891     0.12800
C2022       C  0.63355517  0.11617744  0.16830880    -0.11600
H2023       H  0.56900788  0.07604172  0.19106408     0.13000
C2024       C  0.58594975  0.97574125  0.21194641    -0.22400
H2025       H  0.65424334  0.02303297  0.19814081     0.08700
C2026       C  0.71676036  0.12200277  0.18647676     0.05000
C2027       C  0.75237632  0.13868239  0.17651278    -0.19700
C2028       C  0.76049756  0.12083269  0.15951237    -0.11900
C2029       C  0.73368444  0.08384192  0.15433278     0.13700
C2030       C  0.69722731  0.06902093  0.16248391    -0.22400
C2031       C  0.71095101  0.13892609  0.20694189    -0.05500
H2032       H  0.77378462  0.16570027  0.18197407     0.15300
C2033       C  0.74310132  0.05872288  0.14118130    -0.15600
H2034       H  0.67614825  0.04156586  0.15730545     0.09600
H2035       H  0.60434756  0.97561584  0.22520332     0.07400
H2036       H  0.58757952  0.95924913  0.19808178     0.08600
H2037       H  0.55670402  0.96217142  0.21760251     0.07700
H2038       H  0.63972282  0.10968943  0.15172989     0.02600
H2039       H  0.65829877  0.14155362  0.17424186     0.03000
H2040       H  0.61004362  0.12230871  0.16687737     0.06500
H2041       H  0.73697602  0.16426456  0.21189187     0.05500
H2042       H  0.70259661  0.11845141  0.22052420    -0.00200
H2043       H  0.68882010  0.14666089  0.20474950     0.01200
H2044       H  0.73644545  0.03350161  0.15097022     0.04900
H2045       H  0.77327966  0.07210621  0.13710482     0.06800
H2046       H  0.72617302  0.05002528  0.12596490     0.07700
C2047       C  0.68140538  0.11456994  0.41850200    -0.21900
C2048       C  0.67681188  0.09685604  0.39827417     0.10100
C2049       C  0.64414953  0.06294571  0.39426476     0.10500
C2050       C  0.61683065  0.04737002  0.41050999    -0.16800
C2051       C  0.62075253  0.06499607  0.43073938    -0.27200
C2052       C  0.65361783  0.09916636  0.43483206     0.18800
C2053       C  0.70775176  0.11218470  0.38216687     0.12800
C2054       C  0.63754689  0.04344521  0.37263448    -0.11600
H2055       H  0.59184771  0.02122921  0.40720164     0.13000
C2056       C  0.65925822  0.12001428  0.45593887    -0.22400
H2057       H  0.70687017  0.14044132  0.42149954     0.08700
C2058       C  0.71380270  0.14123171  0.36759252     0.05000
C2059       C  0.74281602  0.15321218  0.35206258    -0.19700
C2060       C  0.76577415  0.13674732  0.35094296    -0.11900
C2061       C  0.75930919  0.10747454  0.36558186     0.13700
C2062       C  0.73043971  0.09566822  0.38096549    -0.22400
C2063       C  0.68958201  0.15931838  0.36841842    -0.05500
H2064       H  0.74801060  0.17582795  0.34098259     0.15300
C2065       C  0.78168595  0.08748452  0.36467985    -0.15600
H2066       H  0.72522867  0.07310586  0.39210872     0.09600
H2067       H  0.68591868  0.14676877  0.45589602     0.07400
H2068       H  0.66025993  0.10316904  0.46987214     0.08600
H2069       H  0.63601793  0.12626777  0.45839497     0.07700
H2070       H  0.65995279  0.03627872  0.36944941     0.02600
H2071       H  0.63713417  0.06196504  0.35954711     0.03000
H2072       H  0.61033067  0.51728509  0.37220835     0.06500
H2073       H  0.69791337  0.18142057  0.35579267     0.05500
H2074       H  0.69206180  0.17207829  0.38473766    -0.00200
H2075       H  0.65993144  0.13818549  0.36552452     0.01200
H2076       H  0.81090018  0.10630258  0.36966036     0.04900
H2077       H  0.78061052  0.07708559  0.34787254     0.06800
H2078       H  0.77049039  0.06323766  0.37596835     0.07700
C2079       C  0.92063481  0.29610463  0.36899394    -0.21900
C2080       C  0.89497656  0.29881916  0.38297832     0.10100
C2081       C  0.85649909  0.27319430  0.38127076     0.10500
C2082       C  0.84449504  0.24511221  0.36552650    -0.16800
C2083       C  0.87015881  0.24222728  0.35157781    -0.27200
C2084       C  0.90878464  0.26758750  0.35356119     0.18800
C2085       C  0.90928575  0.32878244  0.39933787     0.12800
C2086       C  0.82831273  0.27525358  0.39621083    -0.11600
H2087       H  0.81496648  0.22519441  0.36410736     0.13000
C2088       C  0.93827830  0.26447869  0.34046567    -0.22400
H2089       H  0.95021482  0.31580836  0.37055703     0.08700
C2090       C  0.92491073  0.32560562  0.41927157     0.05000
C2091       C  0.94008490  0.35574620  0.43374189    -0.19700
C2092       C  0.94047314  0.38909424  0.42847826    -0.11900
C2093       C  0.92374673  0.39172543  0.40863338     0.13700
C2094       C  0.90831801  0.36138862  0.39435780    -0.22400
C2095       C  0.92572403  0.29050187  0.42514661    -0.05500
H2096       H  0.95263957  0.35362620  0.44893328     0.15300
C2097       C  0.92122843  0.42592800  0.40247191    -0.15600
H2098       H  0.89591483  0.36322335  0.37902603     0.09600
H2099       H  0.95886387  0.26312437  0.35176324     0.07400
H2100       H  0.95302212  0.28918914  0.32967495     0.08600
H2101       H  0.92661314  0.23916197  0.33030443     0.07700
H2102       H  0.82895283  0.30227128  0.39392628     0.02600
H2103       H  0.83506767  0.27261160  0.41351220     0.03000
H2104       H  0.79941775  0.25272197  0.39281572     0.06500
H2105       H  0.93865372  0.29253371  0.44143962     0.05500
H2106       H  0.94223194  0.28493042  0.41278986    -0.00200
H2107       H  0.89674120  0.26678703  0.42557594     0.01200
H2108       H  0.94955218  0.44961242  0.39928708     0.04900
H2109       H  0.90750175  0.43306441  0.41584483     0.06800
H2110       H  0.90453365  0.42160893  0.38733695     0.07700
C2111       C  0.95754385  0.09779657  0.39115255    -0.21900
C2112       C  0.92122082  0.09231968  0.39321706     0.10100
C2113       C  0.89912028  0.07317573  0.41150775     0.10500
C2114       C  0.91398799  0.05954212  0.42745785    -0.16800
C2115       C  0.95018755  0.06429662  0.42524748    -0.27200
C2116       C  0.97246554  0.08407039  0.40695006     0.18800
C2117       C  0.90750755  0.10853301  0.37653109     0.12800
C2118       C  0.85999155  0.06731103  0.41415366    -0.11600
H2119       H  0.89698717  0.04434723  0.44141753     0.13000
C2120       C  0.01232258  0.09188762  0.40420734    -0.22400
H2121       H  0.97428139  0.11305202  0.37711682     0.08700
C2122       C  0.91726851  0.14627002  0.37737327     0.05000
C2123       C  0.90140591  0.16000123  0.36227404    -0.19700
C2124       C  0.87589897  0.13686064  0.34645602    -0.11900
C2125       C  0.86705018  0.09911702  0.34516221     0.13700
C2126       C  0.88343026  0.08558927  0.36018089    -0.22400
C2127       C  0.94362937  0.17177391  0.39455498    -0.05500
H2128       H  0.90834979  0.18891310  0.36309281     0.15300
C2129       C  0.83962679  0.07192277  0.32898894    -0.15600
H2130       H  0.87640558  0.05662371  0.35963540     0.09600
H2131       H  0.02879565  0.10581356  0.41906494     0.07400
H2132       H  0.02620957  0.11039273  0.38997169     0.08600
H2133       H  0.01303343  0.06570668  0.40131531     0.07700
H2134       H  0.84234881  0.05087815  0.40020497     0.02600
H2135       H  0.86072315  0.09457047  0.41459328     0.03000
H2136       H  0.84670979  0.05210403  0.42952064     0.06500
H2137       H  0.94772139  0.20037034  0.39303298     0.05500
H2138       H  0.97138256  0.17337903  0.39284515    -0.00200
H2139       H  0.93220385  0.16106603  0.41111562     0.01200
H2140       H  0.85452310  0.06247800  0.31770111     0.04900
H2141       H  0.82508143  0.08360189  0.31917555     0.06800
H2142       H  0.81780084  0.04736405  0.33787552     0.07700
C2143       C  0.91266993  0.30010532  0.27899711    -0.21900
C2144       C  0.89861486  0.32325325  0.28611238     0.10100
C2145       C  0.86833430  0.30932199  0.30089743     0.10500
C2146       C  0.85340986  0.27279392  0.30869171    -0.16800
C2147       C  0.86835050  0.24996060  0.30229890    -0.27200
C2148       C  0.89785995  0.26351967  0.28685223     0.18800
C2149       C  0.91608054  0.36188496  0.27764608     0.12800
C2150       C  0.85249108  0.33330365  0.30891629    -0.11600
H2151       H  0.83041058  0.26217572  0.32026740     0.13000
C2152       C  0.91460922  0.24018939  0.27899312    -0.22400
H2153       H  0.93562358  0.31094200  0.26737898     0.08700
C2154       C  0.95114057  0.38968928  0.28532066     0.05000
C2155       C  0.96877942  0.42445051  0.27477358    -0.19700
C2156       C  0.95291703  0.43124722  0.25609757    -0.11900
C2157       C  0.91532522  0.40536411  0.25073378     0.13700
C2158       C  0.89781887  0.37057143  0.26113826    -0.22400
C2159       C  0.97038870  0.38228014  0.30417087    -0.05500
H2160       H  0.49593408  0.44533798  0.28037411     0.15300
C2161       C  0.89262284  0.41371739  0.23451854    -0.15600
H2162       H  0.87001104  0.34984351  0.25605280     0.09600
H2163       H  0.93883435  0.25614920  0.26793898     0.07400
H2164       H  0.89354756  0.21601873  0.26966473     0.08600
H2165       H  0.92457437  0.23027629  0.29302175     0.07700
H2166       H  0.84121609  0.34201880  0.29492000     0.02600
H2167       H  0.87480267  0.35833135  0.31709877     0.03000
H2168       H  0.82942495  0.31830845  0.32085704     0.06500
H2169       H  0.49746528  0.40713390  0.30822854     0.05500
H2170       H  0.97614355  0.35938734  0.29995661    -0.00200
H2171       H  0.95219281  0.37431107  0.31891003     0.01200
H2172       H  0.88368279  0.39356621  0.22082822     0.04900
H2173       H  0.90811307  0.44228775  0.22779483     0.06800
H2174       H  0.86724559  0.41101138  0.24277668     0.07700
C2175       C  0.96968794  0.09823743  0.26712646    -0.21900
C2176       C  0.93048315  0.08158970  0.26822359     0.10100
C2177       C  0.90907139  0.04466477  0.26018569     0.10500
C2178       C  0.92747289  0.02746721  0.24994126    -0.16800
C2179       C  0.96659194  0.04348718  0.25042041    -0.27200
C2180       C  0.98742758  0.07801748  0.26101075     0.18800
C2181       C  0.91350284  0.10353002  0.27792366     0.12800
C2182       C  0.86726636  0.02156182  0.26297096    -0.11600
H2183       H  0.91107501  0.50041925  0.24250540     0.13000
C2184       C  0.52762962  0.09351716  0.26747924    -0.22400
H2185       H  0.98685973  0.12652112  0.27267176     0.08700
C2186       C  0.92868768  0.12625659  0.29671808     0.05000
C2187       C  0.91398283  0.14887549  0.30356356    -0.19700
C2188       C  0.87909237  0.14304889  0.29605726    -0.11900
C2189       C  0.86350548  0.12037923  0.27733762     0.13700
C2190       C  0.88257445  0.10337351  0.26765351    -0.22400
C2191       C  0.95759433  0.12493434  0.31155164    -0.05500
H2192       H  0.92753883  0.16785259  0.31698830     0.15300
C2193       C  0.82597340  0.11173304  0.26810867    -0.15600
H2194       H  0.87179933  0.08793187  0.25264060     0.09600
H2195       H  0.54590013  0.11915328  0.25812793     0.07400
H2196       H  0.53073803  0.10035756  0.28519673     0.08600
H2197       H  0.53676714  0.07281330  0.26537914     0.07700
H2198       H  0.85336003  0.01730754  0.24679923     0.02600
H2199       H  0.85552035  0.03380149  0.27452950     0.03000
H2200       H  0.86039601  0.49403570  0.26992908     0.06500
H2201       H  0.94797575  0.12168721  0.32882405     0.05500
H2202       H  0.98451407  0.15123631  0.31008878    -0.00200
H2203       H  0.96197152  0.10093805  0.30831638     0.01200
H2204       H  0.82770586  0.13661158  0.26005784     0.04900
H2205       H  0.80454289  0.10148822  0.28127092     0.06800
H2206       H  0.81642050  0.08974745  0.25542782     0.07700
C2207       C  0.62951856  0.03862383  0.27118260    -0.21900
C2208       C  0.64826168  0.07762498  0.27247862     0.10100
C2209       C  0.63044081  0.09656977  0.26307909     0.10500
C2210       C  0.59723267  0.07637155  0.25111951    -0.16800
C2211       C  0.57691392  0.03743536  0.25200044    -0.27200
C2212       C  0.59303019  0.01852850  0.26306420     0.18800
C2213       C  0.68660535  0.09716205  0.28270362     0.12800
C2214       C  0.64380102  0.13737220  0.26626105    -0.11600
H2215       H  0.58597555  0.09132865  0.24206255     0.13000
C2216       C  0.57274810  0.47746086  0.26703304    -0.22400
H2217       H  0.64291381  0.02324092  0.27712509     0.08700
C2218       C  0.69625413  0.08258827  0.30116821     0.05000
C2219       C  0.73350751  0.09907536  0.30800787    -0.19700
C2220       C  0.76049542  0.13409782  0.30032969    -0.11900
C2221       C  0.75096658  0.14971208  0.28235077     0.13700
C2222       C  0.71514651  0.12967108  0.27291781    -0.22400
C2223       C  0.66815926  0.05180344  0.31548534    -0.05500
H2224       H  0.74066653  0.08561334  0.32091254     0.15300
C2225       C  0.77692880  0.18794741  0.27349606    -0.15600
H2226       H  0.70916241  0.14036818  0.25815467     0.09600
H2227       H  0.56847627  0.47195708  0.28490676     0.07400
H2228       H  0.58913497  0.46452906  0.26082200     0.08600
H2229       H  0.54544246  0.46444495  0.25908109     0.07700
H2230       H  0.65426371  0.15238332  0.25048255     0.02600
H2231       H  0.66571153  0.15009186  0.27897540     0.03000
H2232       H  0.62008071  0.14112477  0.27195279     0.06500
H2233       H  0.67512532  0.06003835  0.33280437     0.05500
H2234       H  0.66982423  0.02603051  0.31284940    -0.00200
H2235       H  0.63915271  0.04654222  0.31299837     0.01200
H2236       H  0.79947176  0.18773265  0.26362133     0.04900
H2237       H  0.78868272  0.20814051  0.28711217     0.06800
H2238       H  0.76196572  0.19778921  0.26244933     0.07700
C2239       C  0.58841090  0.20417063  0.86941453    -0.21900
C2240       C  0.61557359  0.20256619  0.88259337     0.10100
C2241       C  0.65373308  0.22804091  0.87928986     0.10500
C2242       C  0.66376866  0.25583364  0.86339743    -0.16800
C2243       C  0.63655620  0.25819625  0.85054163    -0.27200
C2244       C  0.59835552  0.23160101  0.85331399     0.18800
C2245       C  0.60305474  0.17381606  0.89976260     0.12800
C2246       C  0.68365770  0.22634295  0.89281022    -0.11600
H2247       H  0.69299246  0.27626893  0.86119656     0.13000
C2248       C  0.56720402  0.23163296  0.84024818    -0.22400
H2249       H  0.55913278  0.18409564  0.87193883     0.08700
C2250       C  0.58852092  0.17798276  0.91982885     0.05000
C2251       C  0.57384865  0.14840469  0.93483268    -0.19700
C2252       C  0.57352254  0.11493098  0.93012029    -0.11900
C2253       C  0.59058498  0.11198518  0.91056556     0.13700
C2254       C  0.60436327  0.14123817  0.89543875    -0.22400
C2255       C  0.58805448  0.21339399  0.92519534    -0.05500
H2256       H  0.56123136  0.15089540  0.94988129     0.15300
C2257       C  0.59575722  0.07907574  0.90521915    -0.15600
H2258       H  0.61629606  0.13866558  0.88012227     0.09600
H2259       H  0.54818782  0.23593809  0.85134591     0.07400
H2260       H  0.55108901  0.20452780  0.83183806     0.08600
H2261       H  0.57738756  0.25342002  0.82759047     0.07700
H2262       H  0.68268443  0.19924402  0.89029247     0.02600
H2263       H  0.67909093  0.22947897  0.91041279     0.03000
H2264       H  0.71207496  0.24871101  0.88822216     0.06500
H2265       H  0.07610367  0.21218114  0.94169362     0.05500
H2266       H  0.57085854  0.21842700  0.91301206    -0.00200
H2267       H  0.61706104  0.23708859  0.92487034     0.01200
H2268       H  0.57821754  0.06415591  0.89088202     0.04900
H2269       H  0.58897969  0.05936497  0.91903025     0.06800
H2270       H  0.62557118  0.08894931  0.90107324     0.07700
C2271       C  0.79695982  0.37750638  0.86625207    -0.21900
C2272       C  0.79773876  0.40444286  0.88048996     0.10100
C2273       C  0.76959474  0.41465472  0.87942133     0.10500
C2274       C  0.74076982  0.39718151  0.86419844    -0.16800
C2275       C  0.73944551  0.36967631  0.85021460    -0.27200
C2276       C  0.76766157  0.35939891  0.85129583     0.18800
C2277       C  0.82760951  0.42063825  0.89697080     0.12800
C2278       C  0.76957128  0.44332082  0.89463282    -0.11600
H2279       H  0.71873872  0.40454021  0.86342703     0.13000
C2280       C  0.76690430  0.32854208  0.83778929    -0.22400
H2281       H  0.81867779  0.36971503  0.86735666     0.08700
C2282       C  0.82479225  0.40233672  0.91698200     0.05000
C2283       C  0.85433418  0.41841223  0.93197789    -0.19700
C2284       C  0.88673609  0.45200294  0.92716095    -0.11900
C2285       C  0.88900610  0.47071950  0.90720804     0.13700
C2286       C  0.85920249  0.45472587  0.89238440    -0.22400
C2287       C  0.79073658  0.36579291  0.92237495    -0.05500
H2288       H  0.85260775  0.40412889  0.94723082     0.15300
C2289       C  0.92221053  0.50782547  0.90155811    -0.15600
H2290       H  0.86062773  0.46859606  0.87700817     0.09600
H2291       H  0.76755751  0.30739262  0.84881285     0.07400
H2292       H  0.79182448  0.33997713  0.82691770     0.08600
H2293       H  0.74148877  0.31413242  0.82753969     0.07700
H2294       H  0.79544368  0.47029302  0.89214655     0.02600
H2295       H  0.76836901  0.43420621  0.91188275     0.03000
H2296       H  0.74515071  0.44762395  0.89169664     0.06500
H2297       H  0.79300135  0.35534388  0.93877962     0.05500
H2298       H  0.78734010  0.34464794  0.91005636    -0.00200
H2299       H  0.76542302  0.36916310  0.92227136     0.01200
H2300       H  0.94750281  0.50490177  0.89910790     0.04900
H2301       H  0.92723290  0.02796604  0.91488251     0.06800
H2302       H  0.91761512  0.01947375  0.88616571     0.07700
C2303       C  0.62564714  0.41363728  0.87194107    -0.21900
C2304       C  0.60063720  0.38862763  0.88736523     0.10100
C2305       C  0.59056755  0.35080157  0.88645228     0.10500
C2306       C  0.60557162  0.33869040  0.86987903    -0.16800
C2307       C  0.63023997  0.36350631  0.85417723    -0.27200
C2308       C  0.64130630  0.40170885  0.85557504     0.18800
C2309       C  0.58380233  0.40241745  0.90360855     0.12800
C2310       C  0.56408683  0.32333225  0.90295483    -0.11600
H2311       H  0.59794194  0.30957793  0.86908946     0.13000
C2312       C  0.67067225  0.43083503  0.84095117    -0.22400
H2313       H  0.63345038  0.44277515  0.87292879     0.08700
C2314       C  0.60151500  0.41803787  0.92364625     0.05000
C2315       C  0.58493409  0.43249079  0.93788375    -0.19700
C2316       C  0.55142312  0.43205743  0.93225508    -0.11900
C2317       C  0.53314188  0.41509240  0.91240726     0.13700
C2318       C  0.54965899  0.40046792  0.89838212    -0.22400
C2319       C  0.63800249  0.41980581  0.92979326    -0.05500
H2320       H  0.59881371  0.44528244  0.95309965     0.15300
C2321       C  0.49590517  0.41153623  0.90598830    -0.15600
H2322       H  0.53619429  0.38789982  0.88302491     0.09600
H2323       H  0.69327405  0.45227490  0.85117828     0.07400
H2324       H  0.65789010  0.44427085  0.83095182     0.08600
H2325       H  0.68404957  0.41959186  0.82985515     0.07700
H2326       H  0.53660143  0.32252326  0.90211344     0.02600
H2327       H  0.57576380  0.33164453  0.91968551     0.03000
H2328       H  0.55942580  0.29484610  0.89990775     0.06500
H2329       H  0.64806532  0.43289788  0.94605299     0.05500
H2330       H  0.65973720  0.43638170  0.91743427    -0.00200
H2331       H  0.63437617  0.39133628  0.93045895     0.01200
H2332       H  0.48451768  0.89464848  0.89094428     0.04900
H2333       H  0.49893525  0.93929027  0.90252750     0.06800
H2334       H  0.47525384  0.39773378  0.91935203     0.07700
C2335       C  0.79092555  0.37753171  0.77686691    -0.21900
C2336       C  0.81530916  0.41374919  0.78393974     0.10100
C2337       C  0.80210786  0.43083006  0.79882382     0.10500
C2338       C  0.76508685  0.41101007  0.80652857    -0.16800
C2339       C  0.74125983  0.37373229  0.80067956    -0.27200
C2340       C  0.75439230  0.35704963  0.78526305     0.18800
C2341       C  0.85396821  0.43363228  0.77478867     0.12800
C2342       C  0.82750455  0.46935594  0.80732808    -0.11600
H2343       H  0.75518295  0.42414582  0.81810233     0.13000
C2344       C  0.73191794  0.31735415  0.77797259    -0.22400
H2345       H  0.80089991  0.36470975  0.76510029     0.08700
C2346       C  0.88184811  0.42434458  0.78060747     0.05000
C2347       C  0.91701550  0.44235462  0.77008065    -0.19700
C2348       C  0.92488759  0.46923660  0.75370484    -0.11900
C2349       C  0.89720446  0.47970523  0.74883091     0.13700
C2350       C  0.86231830  0.46158759  0.75930523    -0.22400
C2351       C  0.87443634  0.39545251  0.79790954    -0.05500
H2352       H  0.93794144  0.43435483  0.77403733     0.15300
C2353       C  0.90266925  0.50968631  0.73276481    -0.15600
H2354       H  0.84099339  0.46890615  0.75500743     0.09600
H2355       H  0.74724794  0.30213461  0.78209381     0.07400
H2356       H  0.72771944  0.31648977  0.75997570     0.08600
H2357       H  0.70429734  0.30253649  0.78581065     0.07700
H2358       H  0.83704256  0.48970987  0.79365369     0.02600
H2359       H  0.85221558  0.47015342  0.81540128     0.03000
H2360       H  0.81311503  0.47796327  0.81952375     0.06500
H2361       H  0.89940434  0.39208905  0.80087676     0.05500
H2362       H  0.85111422  0.36818519  0.79273416    -0.00200
H2363       H  0.86681746  0.40376120  0.81354385     0.01200
H2364       H  0.88044855  0.49804321  0.72008531     0.04900
H2365       H  0.92976011  0.52185510  0.72430749     0.06800
H2366       H  0.90073013  0.53229128  0.74144687     0.06300
C2367       C  0.56812521  0.37249000  0.79882234    -0.21900
C2368       C  0.58795132  0.40229109  0.78452862     0.10100
C2369       C  0.62547338  0.41295519  0.77928014     0.10500
C2370       C  0.64263844  0.39408127  0.78903547    -0.16800
C2371       C  0.62315115  0.36495257  0.80398802    -0.27200
C2372       C  0.58485119  0.35321713  0.80827220     0.18800
C2373       C  0.56826897  0.42111719  0.77488333     0.12800
C2374       C  0.64723940  0.44411627  0.76335689    -0.11600
H2375       H  0.67174191  0.40284615  0.78551903     0.13000
C2376       C  0.56009281  0.31982256  0.82203741    -0.22400
H2377       H  0.53906637  0.36387618  0.80243592     0.08700
C2378       C  0.54153718  0.40434344  0.75815138     0.05000
C2379       C  0.52354160  0.42306345  0.74955804    -0.19700
C2380       C  0.53304025  0.45917891  0.75632663    -0.11900
C2381       C  0.55867974  0.47527291  0.77392456     0.13700
C2382       C  0.57582252  0.45584381  0.78296220    -0.22400
C2383       C  0.53319939  0.36741690  0.74866543    -0.05500
H2384       H  0.50322194  0.41016850  0.73656840     0.15300
C2385       C  0.56976009  0.51334389  0.78275552    -0.15600
H2386       H  0.59584244  0.46807451  0.79617074     0.09600
H2387       H  0.53611292  0.29964961  0.81206092     0.07400
H2388       H  0.54918771  0.32844643  0.83621454     0.08600
H2389       H  0.57482058  0.30538402  0.82823611     0.07700
H2390       H  0.64957552  0.47035460  0.76968381     0.02600
H2391       H  0.63270206  0.43756859  0.74729315     0.03000
H2392       H  0.67598061  0.44850336  0.76076926     0.06500
H2393       H  0.51259184  0.35893554  0.73509378     0.05500
H2394       H  0.52150174  0.34556493  0.76150392    -0.00200
H2395       H  0.55933976  0.36925430  0.74207008     0.01200
H2396       H  0.54576599  0.51321395  0.79117726     0.04900
H2397       H  0.58001881  0.53423400  0.76943394     0.06800
H2398       H  0.59259076  0.02235421  0.79501099     0.07700
C2399       C  0.58799742  0.20780750  0.77764794    -0.21900
C2400       C  0.60073828  0.18337113  0.78436995     0.10100
C2401       C  0.63181536  0.19618149  0.79847239     0.10500
C2402       C  0.64866309  0.23284403  0.80604147    -0.16800
C2403       C  0.63402619  0.25656344  0.80090137    -0.27200
C2404       C  0.60374383  0.24404535  0.78597257     0.18800
C2405       C  0.58183187  0.14491416  0.77576832     0.12800
C2406       C  0.64622586  0.17078540  0.80629293    -0.11600
H2407       H  0.67248054  0.24259648  0.81695839     0.13000
C2408       C  0.58572298  0.26679849  0.77924336    -0.22400
H2409       H  0.56465401  0.19804347  0.76634796     0.08700
C2410       C  0.54588116  0.11784822  0.78287346     0.05000
C2411       C  0.52801871  0.08291465  0.77257913    -0.19700
C2412       C  0.54498179  0.07491561  0.75496923    -0.11900
C2413       C  0.58256802  0.10129167  0.74932448     0.13700
C2414       C  0.60005723  0.13588588  0.75961918    -0.22400
C2415       C  0.52630524  0.12607030  0.80110647    -0.05500
H2416       H  0.99979283  0.06269903  0.77736719     0.15300
C2417       C  0.60589141  0.09459778  0.73279476    -0.15600
H2418       H  0.62807707  0.15646165  0.75463312     0.09600
H2419       H  0.55552259  0.25161959  0.78354477     0.07400
H2420       H  0.58856682  0.27148731  0.76126715     0.08600
H2421       H  0.59793166  0.29397604  0.78733951     0.07700
H2422       H  0.65633642  0.16119931  0.79220716     0.02600
H2423       H  0.62343321  0.14635352  0.81476312     0.03000
H2424       H  0.66981644  0.18495149  0.81797323     0.06500
H2425       H  0.99869339  0.10169958  0.80495014     0.05500
H2426       H  0.52159635  0.14946971  0.79636402    -0.00200
H2427       H  0.54377035  0.13365701  0.81612950     0.01200
H2428       H  0.61622800  0.11676588  0.72010923     0.04900
H2429       H  0.59050032  0.06782302  0.72439637     0.06800
H2430       H  0.63038984  0.09532741  0.74110128     0.07700
C2431       C  0.61601629  0.19839133  0.59596197    -0.21900
C2432       C  0.59232852  0.20004628  0.58001090     0.10100
C2433       C  0.58464001  0.22979496  0.57980708     0.10500
C2434       C  0.60184267  0.25798272  0.59531854    -0.16800
C2435       C  0.62714946  0.25753549  0.61069190    -0.27200
C2436       C  0.63428420  0.22713208  0.61104354     0.18800
C2437       C  0.57773803  0.17139204  0.56288906     0.12800
C2438       C  0.55939419  0.23247582  0.56277937    -0.11600
H2439       H  0.59631550  0.28114155  0.59505141     0.13000
C2440       C  0.66245011  0.22473059  0.62584030    -0.22400
H2441       H  0.62170227  0.17530160  0.59592828     0.08700
C2442       C  0.60098599  0.17154440  0.54581360     0.05000
C2443       C  0.58627839  0.14311247  0.53026588    -0.19700
C2444       C  0.54880136  0.11487749  0.53129116    -0.11900
C2445       C  0.52537817  0.11517690  0.54829421     0.13700
C2446       C  0.54032082  0.14348342  0.56395207    -0.22400
C2447       C  0.64117148  0.20182619  0.54391875    -0.05500
H2448       H  0.60414169  0.14289078  0.51723273     0.15300
C2449       C  0.48517256  0.08510675  0.55064904    -0.15600
H2450       H  0.52290897  0.14372882  0.57725165     0.09600
H2451       H  0.68371584  0.22218663  0.61582011     0.07400
H2452       H  0.64812230  0.19993790  0.63656674     0.08600
H2453       H  0.67748195  0.24933043  0.63624626     0.07700
H2454       H  0.53086229  0.20824373  0.56420019     0.02600
H2455       H  0.57065921  0.23295157  0.54617639     0.03000
H2456       H  0.55713167  0.25808309  0.56473360     0.06500
H2457       H  0.65503293  0.19817819  0.52923519     0.05500
H2458       H  0.65718376  0.20162503  0.55854178    -0.00200
H2459       H  0.64236752  0.22924866  0.54261272     0.01200
H2460       H  0.98368565  0.05754053  0.55181509     0.04900
H2461       H  0.96861348  0.08564599  0.53639370     0.06800
H2462       H  0.47196463  0.08887669  0.56560073     0.07700
C2463       C  0.77406964  0.36397517  0.57599063    -0.21900
C2464       C  0.79992277  0.40151805  0.57858131     0.10100
C2465       C  0.79646808  0.42140991  0.59630603     0.10500
C2466       C  0.76628403  0.40320073  0.61086586    -0.16800
C2467       C  0.74018463  0.36534182  0.60836252    -0.27200
C2468       C  0.74479022  0.34536540  0.59085582     0.18800
C2469       C  0.83075457  0.41863290  0.56257694     0.12800
C2470       C  0.82446148  0.46172187  0.59971861    -0.11600
H2471       H  0.76268458  0.41872177  0.62403283     0.13000
C2472       C  0.72078071  0.30419623  0.58767990    -0.22400
H2473       H  0.77741655  0.34878512  0.56250326     0.08700
C2474       C  0.86321005  0.41527627  0.56496849     0.05000
C2475       C  0.89018648  0.42861373  0.54832615    -0.19700
C2476       C  0.88531323  0.44495724  0.52926564    -0.11900
C2477       C  0.85221591  0.44752658  0.52669062     0.13700
C2478       C  0.82556543  0.43470545  0.54358038    -0.22400
C2479       C  0.86923558  0.39748411  0.58504855    -0.05500
H2480       H  0.91554199  0.42673799  0.55035414     0.15300
C2481       C  0.84299762  0.46171299  0.50610090    -0.15600
H2482       H  0.79993367  0.43610777  0.54162246     0.09600
H2483       H  0.73881446  0.29107083  0.58638811     0.07400
H2484       H  0.70406645  0.29863784  0.57245336     0.08600
H2485       H  0.70195152  0.29075866  0.60156327     0.07700
H2486       H  0.82470043  0.47818172  0.58523519     0.02600
H2487       H  0.85281599  0.46495313  0.60198426     0.03000
H2488       H  0.81767799  0.47310754  0.61441447     0.06500
H2489       H  0.89627345  0.39731247  0.58434785     0.05500
H2490       H  0.84642465  0.36829199  0.58651455    -0.00200
H2491       H  0.86936884  0.41301412  0.59988172     0.01200
H2492       H  0.81538100  0.44028864  0.49980374     0.04900
H2493       H  0.86345948  0.46785650  0.49273761     0.06800
H2494       H  0.84146172  0.98726402  0.50982712     0.07700
C2495       C  0.59813957  0.45199472  0.56358484    -0.21900
C2496       C  0.58920786  0.41481025  0.56128549     0.10100
C2497       C  0.56641837  0.39378922  0.54369293     0.10500
C2498       C  0.55265065  0.41043211  0.52894328    -0.16800
C2499       C  0.56187156  0.44787435  0.53101974    -0.27200
C2500       C  0.58526431  0.46903287  0.54855494     0.18800
C2501       C  0.60460396  0.39875334  0.57734415     0.12800
C2502       C  0.55730743  0.35409907  0.54016758    -0.11600
H2503       H  0.53489694  0.39419425  0.51554291     0.13000
C2504       C  0.59605656  0.00921817  0.55203066    -0.22400
H2505       H  0.61546213  0.46779668  0.57724099     0.08700
C2506       C  0.64311995  0.40973512  0.57774315     0.05000
C2507       C  0.65637669  0.39371727  0.59316303    -0.19700
C2508       C  0.63204631  0.36666630  0.60797007    -0.11900
C2509       C  0.59328274  0.35475622  0.60713297     0.13700
C2510       C  0.58022575  0.37175340  0.59220352    -0.22400
C2511       C  0.67012209  0.43757356  0.56156503    -0.05500
H2512       H  0.68595905  0.40215880  0.59360903     0.15300
C2513       C  0.56479477  0.32323776  0.62090021    -0.15600
H2514       H  0.55062405  0.36319352  0.59175140     0.09600
H2515       H  0.61345239  0.02633201  0.53813743     0.07400
H2516       H  0.61278551  0.02052948  0.56718858     0.08600
H2517       H  0.57053198  0.01206879  0.55350848     0.07700
H2518       H  0.54108404  0.33661869  0.55425211     0.02600
H2519       H  0.58361141  0.35272224  0.53840697     0.03000
H2520       H  0.54031993  0.34222396  0.52515909     0.06500
H2521       H  0.69888310  0.44172546  0.56365991     0.05500
H2522       H  0.67146042  0.46486408  0.56381707    -0.00200
H2523       H  0.66085517  0.42766424  0.54462299     0.01200
H2524       H  0.55039990  0.33369136  0.63187751     0.04900
H2525       H  0.57718907  0.30967532  0.63102060     0.06800
H2526       H  0.54372730  0.30157278  0.61004659     0.07700
C2527       C  0.62233560  0.20859750  0.68448911    -0.21900
C2528       C  0.58565488  0.18474066  0.67753562     0.10100
C2529       C  0.56799866  0.19807998  0.66310917     0.10500
C2530       C  0.58820932  0.23443843  0.65505250    -0.16800
C2531       C  0.62610987  0.25751068  0.66042970    -0.27200
C2532       C  0.64299209  0.24477129  0.67604550     0.18800
C2533       C  0.56599233  0.14622667  0.68609867     0.12800
C2534       C  0.52836860  0.17355706  0.65552947    -0.11600
H2535       H  0.57485124  0.24444467  0.64359944     0.13000
C2536       C  0.68309474  0.26711262  0.68326352    -0.22400
H2537       H  0.63536988  0.19843809  0.69608934     0.08700
C2538       C  0.57443805  0.11866621  0.67884132     0.05000
C2539       C  0.55688564  0.08343487  0.68889066    -0.19700
C2540       C  0.53189756  0.07564102  0.70639790    -0.11900
C2541       C  0.52113739  0.10257073  0.71218857     0.13700
C2542       C  0.53877509  0.13749972  0.70216778    -0.22400
C2543       C  0.60229025  0.12664141  0.66073529    -0.05500
H2544       H  0.56449565  0.06274931  0.68400981     0.15300
C2545       C  0.49110004  0.09613248  0.72860125    -0.15600
H2546       H  0.53167847  0.15849378  0.70724468     0.09600
H2547       H  0.69839738  0.25187921  0.67920497     0.07400
H2548       H  0.68412714  0.27135828  0.70124568     0.08600
H2549       H  0.69798235  0.29453315  0.67535451     0.07700
H2550       H  0.50895065  0.16495264  0.66970421     0.02600
H2551       H  0.52612738  0.14849295  0.64743126     0.03000
H2552       H  0.51937305  0.18807768  0.64362328     0.06500
H2553       H  0.60515803  0.10188469  0.65677903     0.05500
H2554       H  0.63020168  0.14930669  0.66571225    -0.00200
H2555       H  0.59300636  0.13511032  0.64572262     0.01200
H2556       H  0.50280052  0.11778176  0.74148131     0.04900
H2557       H  0.97920143  0.06895756  0.73677323     0.06800
H2558       H  0.96796796  0.09801530  0.72024527     0.07700
C2559       C  0.80525923  0.36999851  0.66420434    -0.21900
C2560       C  0.81578346  0.40099616  0.67751597     0.10100
C2561       C  0.78954825  0.41310467  0.68200590     0.10500
C2562       C  0.75386398  0.39481282  0.67218480    -0.16800
C2563       C  0.74380522  0.36453594  0.65814811    -0.27200
C2564       C  0.76950203  0.35110359  0.65492169     0.18800
C2565       C  0.85439694  0.42004294  0.68661057     0.12800
C2566       C  0.79919425  0.44516132  0.69722242    -0.11600
H2567       H  0.73418438  0.40486792  0.67492503     0.13000
C2568       C  0.76018583  0.31648017  0.64223348    -0.22400
H2569       H  0.82514040  0.36028497  0.66111756     0.08700
C2570       C  0.86535825  0.40400195  0.70351101     0.05000
C2571       C  0.90187133  0.42350972  0.71186189    -0.19700
C2572       C  0.92719719  0.45984826  0.70485208    -0.11900
C2573       C  0.91651892  0.47520621  0.68716729     0.13700
C2574       C  0.88056041  0.45467652  0.67805385    -0.22400
C2575       C  0.83806494  0.36709182  0.71347229    -0.05500
H2576       H  0.91006157  0.41111001  0.72493328     0.15300
C2577       C  0.94049357  0.01388696  0.67836524    -0.15600
H2578       H  0.87220658  0.46658153  0.66476718     0.09600
H2579       H  0.76385474  0.29662570  0.65290082     0.07400
H2580       H  0.77914855  0.32353214  0.62789508     0.08600
H2581       H  0.73106306  0.30228265  0.63643470     0.07700
H2582       H  0.82311559  0.47079947  0.69053996     0.02600
H2583       H  0.80687397  0.43895885  0.71354532     0.03000
H2584       H  0.77526834  0.45046744  0.69940112     0.06500
H2585       H  0.85080899  0.35934450  0.72717405     0.05500
H2586       H  0.82860530  0.34493684  0.70094186    -0.00200
H2587       H  0.81346269  0.36848282  0.72001223     0.01200
H2588       H  0.94766933  0.01249340  0.66099495     0.04900
H2589       H  0.96650007  0.02993884  0.68760466     0.06800
H2590       H  0.92482946  0.02952715  0.67929444     0.07700
C2591       C  0.59747149  0.45857039  0.70003568    -0.21900
C2592       C  0.57747465  0.43086235  0.68470078     0.10100
C2593       C  0.54016380  0.42168735  0.67984348     0.10500
C2594       C  0.52354237  0.44002110  0.69088516    -0.16800
C2595       C  0.54314613  0.46697737  0.70694726    -0.27200
C2596       C  0.58117522  0.47685772  0.71108657     0.18800
C2597       C  0.59614569  0.41115774  0.67473514     0.12800
C2598       C  0.51796661  0.39256910  0.66302924    -0.11600
H2599       H  0.99465105  0.43232834  0.68752418     0.13000
C2600       C  0.60609023  0.50647276  0.72688861    -0.22400
H2601       H  0.62614398  0.46566878  0.70369177     0.08700
C2602       C  0.62511908  0.42838532  0.65915346     0.05000
C2603       C  0.64316745  0.40921334  0.65120404    -0.19700
C2604       C  0.63204109  0.37242785  0.65762833    -0.11900
C2605       C  0.60286945  0.35534291  0.67337670     0.13700
C2606       C  0.58601038  0.37521883  0.68196522    -0.22400
C2607       C  0.63621986  0.46655577  0.65037924    -0.05500
H2608       H  0.66548554  0.42269833  0.63930476     0.15300
C2609       C  0.58704070  0.31580483  0.68090242    -0.15600
H2610       H  0.56404947  0.36218837  0.69414498     0.09600
H2611       H  0.63026162  0.02881829  0.71796866     0.07400
H2612       H  0.61671067  0.49436124  0.73942593     0.08600
H2613       H  0.59155463  0.01901227  0.73544923     0.07700
H2614       H  0.51480968  0.36536500  0.66820629     0.02600
H2615       H  0.53265830  0.40060450  0.64700536     0.03000
H2616       H  0.98953780  0.38922370  0.66084108     0.06500
H2617       H  0.65843147  0.47541730  0.63770592     0.05500
H2618       H  0.64700409  0.48716016  0.66382687    -0.00200
H2619       H  0.61152287  0.46655260  0.64282125     0.01200
H2620       H  0.59136548  0.31505907  0.69880626     0.04900
H2621       H  0.59982265  0.30128707  0.67264032     0.06800
H2622       H  0.55656799  0.30029021  0.67736008     0.07700
C2623       C  0.66848529  0.83206035  0.65631350     0.46000
H2624       H  0.66904811  0.83337543  0.67447724    -0.03000
C2625       C  0.66737817  0.82941367  0.61372089     0.46100
H2626       H  0.66677968  0.82849176  0.59552475    -0.03000
C2627       C  0.64862596  0.85209700  0.64554157    -0.16700
C2628       C  0.70798726  0.84962513  0.64557830    -0.16500
C2629       C  0.64764078  0.79195536  0.64703514    -0.16800
C2630       C  0.64840585  0.85021807  0.62305077    -0.16800
C2631       C  0.70688274  0.84838871  0.62307743    -0.16400
C2632       C  0.64738188  0.79112968  0.62452344    -0.16700
C2633       C  0.66560026  0.83150597  0.80412496     0.46000
H2634       H  0.66478040  0.83252827  0.78597024    -0.03000
C2635       C  0.66790999  0.82958083  0.84667976     0.46100
H2636       H  0.66913028  0.82880967  0.86486804    -0.03000
C2637       C  0.70592893  0.85218153  0.81365406    -0.16700
C2638       C  0.64419734  0.84910467  0.81577872    -0.16500
C2639       C  0.64808434  0.79156072  0.81384610    -0.16800
C2640       C  0.70622406  0.85057118  0.83611437    -0.16800
C2641       C  0.64653473  0.84845725  0.83823279    -0.16400
C2642       C  0.64935213  0.79133145  0.83633105    -0.16700
C2643       C  0.50202507  0.50147620  0.70910964     0.46000
H2644       H  0.50320760  0.50145300  0.69094953    -0.03000
C2645       C  0.99986360  0.50125362  0.75181982     0.46100
H2646       H  0.99800974  0.50089304  0.76988895    -0.03000
C2647       C  0.52229670  0.98212548  0.71995771    -0.16700
C2648       C  0.51987772  0.54071930  0.71933941    -0.16500
C2649       C  0.96186566  0.98155626  0.71839142    -0.16800
C2650       C  0.51945456  0.98042155  0.74254113    -0.16800
C2651       C  0.52197504  0.54049862  0.74179542    -0.16400
C2652       C  0.96070962  0.98333430  0.74090587    -0.16700
C2653       C  0.83606435  0.67552756  0.30227188     0.46000
H2654       H  0.83616931  0.67804975  0.28442926    -0.03000
C2655       C  0.83745927  0.67129772  0.34466908     0.46100
H2656       H  0.83826191  0.67003041  0.36283980    -0.03000
C2657       C  0.79651335  0.65384669  0.31288467    -0.16700
C2658       C  0.85781435  0.65591033  0.31047446    -0.16500
C2659       C  0.85480458  0.71368501  0.31376014    -0.16800
C2660       C  0.79806349  0.65229503  0.33548432    -0.16800
C2661       C  0.85749931  0.65330202  0.33302316    -0.16400
C2662       C  0.85542471  0.71084392  0.33610252    -0.16700
C2663       C  0.83143707  0.67099609  0.11296213     0.46000
H2664       H  0.82954198  0.67276871  0.09495968    -0.03000
C2665       C  0.83439570  0.66752235  0.15542965     0.46100
H2666       H  0.83574620  0.66634491  0.17355745    -0.03000
C2667       C  0.79374143  0.64445378  0.12328506    -0.16700
C2668       C  0.85821144  0.65735106  0.12089556    -0.16500
C2669       C  0.84454519  0.70830001  0.12418749    -0.16800
C2670       C  0.79475272  0.64259790  0.14582441    -0.16800
C2671       C  0.85988623  0.65518082  0.14343116    -0.16400
C2672       C  0.84663060  0.70690770  0.14648238    -0.16700
C2673       C  0.50097959  0.49808365  0.20713399     0.46000
H2674       H  0.50113165  0.49639372  0.18899572    -0.03000
C2675       C  0.50139177  0.50302592  0.24978889     0.46100
H2676       H  0.50152389  0.50523200  0.26790859    -0.03000
C2677       C  0.98434229  0.52231714  0.21583148    -0.16700
C2678       C  0.97908811  0.95984543  0.21881636    -0.16500
C2679       C  0.54043845  0.51553045  0.21710782    -0.16800
C2680       C  0.98457225  0.52474007  0.23831825    -0.16800
C2681       C  0.97733236  0.96302506  0.24128543    -0.16400
C2682       C  0.54089935  0.51782972  0.23951113    -0.16700
Zn2683     Zn  0.52084701  0.96967259  0.99170852     1.49700
Zn2684     Zn  0.50153725  0.50015049  0.94847956     1.49400
Zn2685     Zn  0.94693255  0.97799786  0.98914029     1.49100
Zn2686     Zn  0.52777337  0.55086058  0.98991140     1.49500
O2687       O  0.49923897  0.49949649  0.98002279    -1.83600
O2688       O  0.53911468  0.94890544  0.96743151    -0.74200
O2689       O  0.95121271  0.97992119  0.93521478    -0.74000
O2690       O  0.93231611  0.93413994  0.00898113    -0.73500
O2691       O  0.52331834  0.96950975  0.93786009    -0.74200
O2692       O  0.98297273  0.92725805  0.01004790    -0.73800
O2693       O  0.91176142  0.96248528  0.96325870    -0.74400
O2694       O  0.99532729  0.56545992  0.00676335    -0.73800
O2695       O  0.53298555  0.55095182  0.93637075    -0.74600
O2696       O  0.93969637  0.51435129  0.00721360    -0.73900
O2697       O  0.55314190  0.58761124  0.96538297    -0.74400
O2698       O  0.56690236  0.55589723  0.01107207    -0.74300
O2699       O  0.56327540  0.50031493  0.01232366    -0.74100
C2700       C  0.53706001  0.95094000  0.94668465     0.77700
C2701       C  0.91818906  0.96582458  0.94273664     0.78200
C2702       C  0.94967078  0.91766118  0.01599090     0.77100
C2703       C  0.96155086  0.54753102  0.01321302     0.77500
C2704       C  0.55240520  0.58284440  0.94478430     0.78600
C2705       C  0.57745107  0.53382277  0.01873403     0.77700
Zn2706     Zn  0.97232042  0.52757312  0.48784392     1.49700
Zn2707     Zn  0.97688514  0.95192277  0.48959191     1.49400
Zn2708     Zn  0.50420146  0.50363947  0.44798938     1.49100
Zn2709     Zn  0.55276037  0.53085388  0.49063242     1.49500
O2710       O  0.50152346  0.50347180  0.47936662    -1.83600
O2711       O  0.92738370  0.99306949  0.50564847    -0.74200
O2712       O  0.95696247  0.91542915  0.46426357    -0.74000
O2713       O  0.98142734  0.53123051  0.43464647    -0.73500
O2714       O  0.93321733  0.94239517  0.50887982    -0.74200
O2715       O  0.95620219  0.54702802  0.46177357    -0.73800
O2716       O  0.97717897  0.95321349  0.43556306    -0.74400
O2717       O  0.59198414  0.55244856  0.46645245    -0.73800
O2718       O  0.51216375  0.94227558  0.50822271    -0.74600
O2719       O  0.55615841  0.52850991  0.43728281    -0.73900
O2720       O  0.56360807  0.99733754  0.50973067    -0.74400
O2721       O  0.55810663  0.57250073  0.50976496    -0.74300
O2722       O  0.50279097  0.57021736  0.50774436    -0.74100
C2723       C  0.91646959  0.96070899  0.51339569     0.77700
C2724       C  0.95909625  0.92083117  0.44361825     0.78200
C2725       C  0.96338247  0.54682822  0.44150150     0.77100
C2726       C  0.58820460  0.54792470  0.44580832     0.77500
C2727       C  0.54514237  0.96333207  0.51539977     0.78600
C2728       C  0.53585186  0.58436792  0.51532039     0.77700
C2729       C  0.63261804  0.54553405  0.07092782    -0.21900
C2730       C  0.66478522  0.57935359  0.06651296     0.10100
C2731       C  0.66817862  0.59796245  0.04654288     0.10500
C2732       C  0.63913736  0.58213803  0.03126111    -0.16800
C2733       C  0.60698457  0.54804714  0.03545718    -0.27200
C2734       C  0.60326676  0.52975681  0.05575286     0.18800
C2735       C  0.69580645  0.59390463  0.08235313     0.12800
C2736       C  0.70249135  0.63445291  0.04138126    -0.11600
H2737       H  0.64165679  0.59628635  0.01583713     0.13000
C2738       C  0.56847223  0.49467085  0.06247097    -0.22400
H2739       H  0.63031342  0.53154960  0.08638877     0.08700
C2740       C  0.69747144  0.61631725  0.10011681     0.05000
C2741       C  0.72927043  0.63167493  0.11357182    -0.19700
C2742       C  0.75955871  0.62546723  0.10938985    -0.11900
C2743       C  0.75719804  0.60225845  0.09163637     0.13700
C2744       C  0.72515950  0.58658794  0.07854371    -0.22400
C2745       C  0.66610426  0.62459475  0.10448996    -0.05500
H2746       H  0.73082231  0.64921719  0.12714466     0.15300
C2747       C  0.78738096  0.59257455  0.08652042    -0.15600
H2748       H  0.72325002  0.56912986  0.06481882     0.09600
H2749       H  0.55778115  0.49946373  0.07814740     0.07400
H2750       H  0.57537415  0.47199751  0.06491208     0.08600
H2751       H  0.54538489  0.48533129  0.05047796     0.07700
H2752       H  0.72762931  0.63079960  0.04119770     0.02600
H2753       H  0.70615952  0.65529266  0.05398395     0.03000
H2754       H  0.70033594  0.64547038  0.02513961     0.06500
H2755       H  0.67233851  0.64342894  0.11869536     0.05500
H2756       H  0.63992851  0.59834770  0.10798470    -0.00200
H2757       H  0.66174903  0.63828131  0.08995457     0.01200
H2758       H  0.77862407  0.57107596  0.07358329     0.04900
H2759       H  0.79391541  0.58124053  0.10128721     0.06800
H2760       H  0.81265218  0.61720509  0.08027960     0.07700
C2761       C  0.90615779  0.86540554  0.06856490    -0.21900
C2762       C  0.89948595  0.82979203  0.06310823     0.10100
C2763       C  0.90814702  0.82268578  0.04192541     0.10500
C2764       C  0.92425275  0.85188891  0.02669287    -0.16800
C2765       C  0.93135476  0.88771577  0.03220855    -0.27200
C2766       C  0.92220614  0.89462997  0.05341677     0.18800
C2767       C  0.88540182  0.80085196  0.08025264     0.12800
C2768       C  0.90063118  0.78440365  0.03553993    -0.11600
H2769       H  0.93141045  0.84682274  0.01045135     0.13000
C2770       C  0.93039328  0.93262551  0.06102977    -0.22400
H2771       H  0.89971783  0.87063160  0.08496394     0.08700
C2772       C  0.91030457  0.79601677  0.09406382     0.05000
C2773       C  0.89595365  0.76703094  0.10936388    -0.19700
C2774       C  0.85737179  0.74280833  0.11115982    -0.11900
C2775       C  0.83237634  0.74904932  0.09815225     0.13700
C2776       C  0.84674669  0.77784558  0.08264673    -0.22400
C2777       C  0.95203172  0.82074909  0.09220888    -0.05500
H2778       H  0.91517420  0.76205226  0.11907000     0.15300
C2779       C  0.79057189  0.72615740  0.10041768    -0.15600
H2780       H  0.82773171  0.78226755  0.07227536     0.09600
H2781       H  0.94899354  0.94064403  0.07557745     0.07400
H2782       H  0.90382286  0.93189415  0.06569976     0.08600
H2783       H  0.94450787  0.95462386  0.04851226     0.07700
H2784       H  0.87028174  0.76444819  0.03718796     0.02600
H2785       H  0.91657218  0.77539848  0.04634253     0.03000
H2786       H  0.90900150  0.78364091  0.01833656     0.06500
H2787       H  0.96742781  0.81294939  0.10423041     0.05500
H2788       H  0.95928470  0.85000088  0.09531945    -0.00200
H2789       H  0.96158067  0.81860127  0.07554190     0.01200
H2790       H  0.77850845  0.74472770  0.10339102     0.04900
H2791       H  0.78235918  0.70670832  0.11441722     0.06800
H2792       H  0.77841650  0.71018667  0.08517017     0.07700
C2793       C  0.91023755  0.64714786  0.07195854    -0.21900
C2794       C  0.90240241  0.61046694  0.07467292     0.10100
C2795       C  0.88161620  0.58960642  0.09286654     0.10500
C2796       C  0.86809140  0.60585245  0.10780130    -0.16800
C2797       C  0.87541616  0.64266194  0.10511301    -0.27200
C2798       C  0.89722902  0.66375342  0.08698003     0.18800
C2799       C  0.91739017  0.59491028  0.05849633     0.12800
C2800       C  0.87362903  0.55024976  0.09641361    -0.11600
H2801       H  0.85103408  0.58945170  0.12143648     0.13000
C2802       C  0.90895050  0.70417830  0.08373777    -0.22400
H2803       H  0.92693806  0.66290247  0.05803037     0.08700
C2804       C  0.89739382  0.57749112  0.03936397     0.05000
C2805       C  0.91275266  0.56258590  0.02466201    -0.19700
C2806       C  0.94763003  0.56500599  0.02875692    -0.11900
C2807       C  0.96750496  0.58240928  0.04813524     0.13700
C2808       C  0.95227854  0.59774128  0.06254451    -0.22400
C2809       C  0.85993595  0.57460817  0.03459766    -0.05500
H2810       H  0.89753061  0.54899655  0.00991629     0.15300
C2811       C  0.50361640  0.58372634  0.05497494    -0.15600
H2812       H  0.96721205  0.61108433  0.07742689     0.09600
H2813       H  0.92831939  0.71639603  0.06962212     0.07400
H2814       H  0.92404593  0.71996566  0.09841994     0.08600
H2815       H  0.88458468  0.70805682  0.08028126     0.07700
H2816       H  0.90035803  0.54967936  0.09812069     0.02600
H2817       H  0.85780428  0.53285068  0.08226095     0.03000
H2818       H  0.85680430  0.53788522  0.11146259     0.06500
H2819       H  0.84800681  0.05999885  0.01893112     0.05500
H2820       H  0.86301820  0.60283862  0.03342986    -0.00200
H2821       H  0.83990814  0.55898627  0.04793423     0.01200
H2822       H  0.52641173  0.61304087  0.05536898     0.04900
H2823       H  0.51230174  0.56773055  0.04426867     0.06800
H2824       H  0.50024796  0.57166260  0.07165510     0.07700
C2825       C  0.86331208  0.79505501  0.17566593    -0.21900
C2826       C  0.90262999  0.81450016  0.17642534     0.10100
C2827       C  0.92263926  0.79658611  0.16909445     0.10500
C2828       C  0.90289985  0.75961555  0.16200903    -0.16800
C2829       C  0.86390209  0.74121138  0.15987055    -0.27200
C2830       C  0.84379530  0.75921848  0.16664690     0.18800
C2831       C  0.92237197  0.85240064  0.18625955     0.12800
C2832       C  0.96476472  0.81700350  0.16722760    -0.11600
H2833       H  0.91819462  0.74590219  0.15641956     0.13000
C2834       C  0.80200188  0.74183399  0.16411629    -0.22400
H2835       H  0.84773452  0.80817891  0.18171146     0.08700
C2836       C  0.92132331  0.88359981  0.17729000     0.05000
C2837       C  0.94086034  0.91840477  0.18783562    -0.19700
C2838       C  0.96229885  0.92313580  0.20682107    -0.11900
C2839       C  0.96559753  0.89206908  0.21434606     0.13700
C2840       C  0.94399012  0.85721014  0.20486943    -0.22400
C2841       C  0.90028471  0.88047941  0.15645540    -0.05500
H2842       H  0.93873514  0.94179948  0.18143362     0.15300
C2843       C  0.99286799  0.89403080  0.23141102    -0.15600
H2844       H  0.94504553  0.83343816  0.21175759     0.09600
H2845       H  0.78937186  0.71426274  0.15617737     0.07400
H2846       H  0.79533346  0.76009840  0.15383359     0.08600
H2847       H  0.78885897  0.73849517  0.18046514     0.07700
H2848       H  0.97799593  0.82480417  0.18358030     0.02600
H2849       H  0.97388744  0.84239975  0.15709748     0.03000
H2850       H  0.97528978  0.79969960  0.15926178     0.06500
H2851       H  0.90381524  0.90781672  0.15119405     0.05500
H2852       H  0.86994533  0.86140768  0.15883733    -0.00200
H2853       H  0.91084505  0.86976532  0.14313323     0.01200
H2854       H  0.97775588  0.87488069  0.24516176     0.04900
H2855       H  0.00959727  0.92199144  0.23775941     0.06800
H2856       H  0.01243782  0.88559259  0.22411649     0.07700
C2857       C  0.93413156  0.62736333  0.15703326    -0.21900
C2858       C  0.91495015  0.59829012  0.17202591     0.10100
C2859       C  0.88018282  0.59237017  0.18039520     0.10500
C2860       C  0.86303429  0.61167869  0.17107736    -0.16800
C2861       C  0.88138958  0.63937568  0.15509470    -0.27200
C2862       C  0.91877361  0.64926855  0.14951616     0.18800
C2863       C  0.93428123  0.57824458  0.18085999     0.12800
C2864       C  0.86252555  0.56795611  0.20016586    -0.11600
H2865       H  0.83517333  0.60509096  0.17632959     0.13000
C2866       C  0.94396573  0.68378978  0.13668432    -0.22400
H2867       H  0.96208464  0.63406852  0.15185769     0.08700
C2868       C  0.92102433  0.53987398  0.17745312     0.05000
C2869       C  0.93832038  0.52213094  0.18856168    -0.19700
C2870       C  0.97033117  0.54245275  0.20149188    -0.11900
C2871       C  0.98664103  0.58166304  0.20194836     0.13700
C2872       C  0.96777717  0.59877268  0.19235921    -0.22400
C2873       C  0.89041678  0.51824188  0.16112520    -0.05500
H2874       H  0.92661701  0.99234413  0.18731337     0.15300
C2875       C  0.52437005  0.60659473  0.21183658    -0.15600
H2876       H  0.97943851  0.62858610  0.19384678     0.09600
H2877       H  0.95213164  0.67617004  0.12100744     0.07400
H2878       H  0.96969087  0.70112724  0.14630517     0.08600
H2879       H  0.93070769  0.70113882  0.13337491     0.07700
H2880       H  0.88251883  0.57836825  0.21405388     0.02600
H2881       H  0.85520725  0.53883540  0.19695328     0.03000
H2882       H  0.83657945  0.56815005  0.20527978     0.06500
H2883       H  0.88428277  0.98892318  0.16006453     0.05500
H2884       H  0.89945801  0.53108580  0.14467017    -0.00200
H2885       H  0.86413858  0.51813779  0.16545232     0.01200
H2886       H  0.53715911  0.59101383  0.21935721     0.04900
H2887       H  0.54366452  0.62477110  0.19886273     0.06800
H2888       H  0.02170488  0.62453097  0.22438111     0.07700
C2889       C  0.63587150  0.53499137  0.19675832    -0.21900
C2890       C  0.64901894  0.56968006  0.18668312     0.10100
C2891       C  0.62377144  0.58347102  0.18319509     0.10500
C2892       C  0.58773556  0.56459780  0.19260178    -0.16800
C2893       C  0.57554668  0.53092536  0.20389002    -0.27200
C2894       C  0.59911102  0.51481535  0.20443920     0.18800
C2895       C  0.68792063  0.58825872  0.17792891     0.12800
C2896       C  0.63355513  0.61617712  0.16830862    -0.11600
H2897       H  0.56900761  0.57604099  0.19106364     0.13000
C2898       C  0.58595068  0.47574148  0.21194672    -0.22400
H2899       H  0.65424410  0.52303342  0.19814106     0.08700
C2900       C  0.71676056  0.62200309  0.18647672     0.05000
C2901       C  0.75237658  0.63868287  0.17651277    -0.19700
C2902       C  0.76049793  0.62083310  0.15951243    -0.11900
C2903       C  0.73368494  0.58384227  0.15433289     0.13700
C2904       C  0.69722781  0.56902120  0.16248399    -0.22400
C2905       C  0.71095107  0.63892643  0.20694179    -0.05500
H2906       H  0.77378469  0.66570074  0.18197398     0.15300
C2907       C  0.74310200  0.55872330  0.14118147    -0.15600
H2908       H  0.67614880  0.54156600  0.15730555     0.09600
H2909       H  0.60434857  0.47561648  0.22520371     0.07400
H2910       H  0.58758068  0.45924927  0.19808221     0.08600
H2911       H  0.55670493  0.46217146  0.21760280     0.07700
H2912       H  0.63972303  0.60968920  0.15172975     0.02600
H2913       H  0.65829851  0.64155342  0.17424174     0.03000
H2914       H  0.61004339  0.62230812  0.16687706     0.06500
H2915       H  0.73697600  0.66426499  0.21189174     0.05500
H2916       H  0.70259673  0.61845183  0.22052415    -0.00200
H2917       H  0.68882008  0.64666111  0.20474933     0.01200
H2918       H  0.73644627  0.53350212  0.15097044     0.04900
H2919       H  0.77328034  0.57210676  0.13710498     0.06800
H2920       H  0.72617370  0.55002558  0.12596507     0.07700
C2921       C  0.68140550  0.61456924  0.41850209    -0.21900
C2922       C  0.67681205  0.59685531  0.39827427     0.10100
C2923       C  0.64414970  0.56294501  0.39426482     0.10500
C2924       C  0.61683064  0.54736928  0.41050999    -0.16800
C2925       C  0.62075252  0.56499544  0.43073938    -0.27200
C2926       C  0.65361784  0.59916568  0.43483210     0.18800
C2927       C  0.70775196  0.61218406  0.38216698     0.12800
C2928       C  0.63754710  0.54344454  0.37263453    -0.11600
H2929       H  0.59184784  0.52122865  0.40720164     0.13000
C2930       C  0.65925819  0.62001362  0.45593891    -0.22400
H2931       H  0.70687026  0.64044058  0.42149965     0.08700
C2932       C  0.71380294  0.64123122  0.36759274     0.05000
C2933       C  0.74281622  0.65321178  0.35206278    -0.19700
C2934       C  0.76577437  0.63674695  0.35094307    -0.11900
C2935       C  0.75930947  0.60747411  0.36558191     0.13700
C2936       C  0.73043994  0.59566761  0.38096553    -0.22400
C2937       C  0.68958239  0.65931803  0.36841883    -0.05500
H2938       H  0.74801079  0.67582760  0.34098285     0.15300
C2939       C  0.78168636  0.58748423  0.36467986    -0.15600
H2940       H  0.72522895  0.57310522  0.39210870     0.09600
H2941       H  0.68591868  0.64676808  0.45589609     0.07400
H2942       H  0.66025978  0.60316835  0.46987220     0.08600
H2943       H  0.63601793  0.62626718  0.45839496     0.07700
H2944       H  0.65995301  0.53627802  0.36944950     0.02600
H2945       H  0.63713447  0.56196440  0.35954715     0.03000
H2946       H  0.61033045  0.01728573  0.37220833     0.06500
H2947       H  0.69791376  0.68142032  0.35579315     0.05500
H2948       H  0.69206233  0.67207783  0.38473813    -0.00200
H2949       H  0.65993177  0.63818524  0.36552496     0.01200
H2950       H  0.81090058  0.60630238  0.36966036     0.04900
H2951       H  0.78061099  0.57708537  0.34787253     0.06800
H2952       H  0.77049091  0.56323736  0.37596834     0.07700
C2953       C  0.92063532  0.79610386  0.36899433    -0.21900
C2954       C  0.89497703  0.79881901  0.38297838     0.10100
C2955       C  0.85649943  0.77319478  0.38127046     0.10500
C2956       C  0.84449532  0.74511270  0.36552620    -0.16800
C2957       C  0.87015904  0.74222714  0.35157783    -0.27200
C2958       C  0.90878498  0.76758675  0.35356152     0.18800
C2959       C  0.90928629  0.82878239  0.39933787     0.12800
C2960       C  0.82831302  0.77525475  0.39621015    -0.11600
H2961       H  0.81496656  0.72519531  0.36410680     0.13000
C2962       C  0.93827856  0.76447738  0.34046625    -0.22400
H2963       H  0.95021536  0.81580707  0.37055765     0.08700
C2964       C  0.92491086  0.82560551  0.41927171     0.05000
C2965       C  0.94008497  0.85574615  0.43374202    -0.19700
C2966       C  0.94047352  0.88909428  0.42847822    -0.11900
C2967       C  0.92374760  0.89172557  0.40863317     0.13700
C2968       C  0.90831894  0.86138872  0.39435762    -0.22400
C2969       C  0.92572372  0.79050162  0.42514696    -0.05500
H2970       H  0.95263930  0.85362608  0.44893350     0.15300
C2971       C  0.92122979  0.92592832  0.40247144    -0.15600
H2972       H  0.89591611  0.86322352  0.37902573     0.09600
H2973       H  0.95886351  0.76312228  0.35176398     0.07400
H2974       H  0.95302314  0.78918796  0.32967572     0.08600
H2975       H  0.92661317  0.73916086  0.33030482     0.07700
H2976       H  0.82895384  0.80227276  0.39392546     0.02600
H2977       H  0.83506733  0.77261256  0.41351161     0.03000
H2978       H  0.79941792  0.75272357  0.39281481     0.06500
H2979       H  0.93865312  0.79253343  0.44144006     0.05500
H2980       H  0.94223170  0.78492993  0.41279038    -0.00200
H2981       H  0.89674079  0.76678694  0.42557619     0.01200
H2982       H  0.94955371  0.94961254  0.39928674     0.04900
H2983       H  0.90750298  0.93306497  0.41584417     0.06800
H2984       H  0.90453534  0.92160932  0.38733634     0.07700
C2985       C  0.95754418  0.59779689  0.39115278    -0.21900
C2986       C  0.92122097  0.59231958  0.39321709     0.10100
C2987       C  0.89912021  0.57317526  0.41150763     0.10500
C2988       C  0.91398781  0.55954165  0.42745785    -0.16800
C2989       C  0.95018761  0.56429661  0.42524761    -0.27200
C2990       C  0.97246581  0.58407076  0.40695036     0.18800
C2991       C  0.90750777  0.60853294  0.37653109     0.12800
C2992       C  0.85999131  0.56731017  0.41415334    -0.11600
H2993       H  0.89698696  0.54434661  0.44141732     0.13000
C2994       C  0.01232304  0.59188843  0.40420788    -0.22400
H2995       H  0.97428187  0.61305257  0.37711718     0.08700
C2996       C  0.91726864  0.64626991  0.37737331     0.05000
C2997       C  0.90140614  0.66000119  0.36227404    -0.19700
C2998       C  0.87589930  0.63686059  0.34645595    -0.11900
C2999       C  0.86705061  0.59911700  0.34516211     0.13700
C3000       C  0.88343065  0.58558924  0.36018081    -0.22400
C3001       C  0.94362924  0.67177374  0.39455515    -0.05500
H3002       H  0.90834991  0.68891292  0.36309285     0.15300
C3003       C  0.83962732  0.57192279  0.32898878    -0.15600
H3004       H  0.87640603  0.55662369  0.35963530     0.09600
H3005       H  0.02879575  0.60581427  0.41906560     0.07400
H3006       H  0.02621017  0.61039377  0.38997234     0.08600
H3007       H  0.01303424  0.56570767  0.40131582     0.07700
H3008       H  0.84234886  0.55087734  0.40020455     0.02600
H3009       H  0.86072264  0.59456949  0.41459298     0.03000
H3010       H  0.84670940  0.55210299  0.42952023     0.06500
H3011       H  0.94772116  0.70037013  0.39303319     0.05500
H3012       H  0.97138251  0.67337899  0.39284542    -0.00200
H3013       H  0.93220355  0.66106569  0.41111574     0.01200
H3014       H  0.85452374  0.56247817  0.31770093     0.04900
H3015       H  0.82508191  0.58360188  0.31917542     0.06800
H3016       H  0.81780140  0.54736398  0.33787530     0.07700
C3017       C  0.91267045  0.80010544  0.27899747    -0.21900
C3018       C  0.89861535  0.82325336  0.28611273     0.10100
C3019       C  0.86833459  0.80932197  0.30089763     0.10500
C3020       C  0.85340999  0.77279381  0.30869176    -0.16800
C3021       C  0.86835063  0.74996050  0.30229899    -0.27200
C3022       C  0.89786028  0.76351969  0.28685244     0.18800
C3023       C  0.91608099  0.86188509  0.27764645     0.12800
C3024       C  0.85249135  0.83330362  0.30891649    -0.11600
H3025       H  0.83041051  0.76217551  0.32026736     0.13000
C3026       C  0.91460951  0.74018937  0.27899333    -0.22400
H3027       H  0.93562426  0.81094221  0.26737942     0.08700
C3028       C  0.95114108  0.88968944  0.28532096     0.05000
C3029       C  0.96877980  0.92445064  0.27477386    -0.19700
C3030       C  0.95291727  0.93124735  0.25609792    -0.11900
C3031       C  0.91532542  0.90536422  0.25073423     0.13700
C3032       C  0.89781922  0.87057159  0.26113873    -0.22400
C3033       C  0.97038934  0.88228032  0.30417111    -0.05500
H3034       H  0.49593477  0.94533829  0.28037434     0.15300
C3035       C  0.89262292  0.91371745  0.23451906    -0.15600
H3036       H  0.87001127  0.84984360  0.25605332     0.09600
H3037       H  0.93883476  0.75614920  0.26793928     0.07400
H3038       H  0.89354787  0.71601881  0.26966487     0.08600
H3039       H  0.92457446  0.73027610  0.29302198     0.07700
H3040       H  0.84121655  0.84201895  0.29492019     0.02600
H3041       H  0.87480290  0.85833121  0.31709907     0.03000
H3042       H  0.82942508  0.81830834  0.32085715     0.06500
H3043       H  0.49746623  0.90713421  0.30822869     0.05500
H3044       H  0.97614418  0.85938755  0.29995680    -0.00200
H3045       H  0.95219354  0.87431124  0.31891030     0.01200
H3046       H  0.88368281  0.89356627  0.22082874     0.04900
H3047       H  0.90811308  0.94228780  0.22779533     0.06800
H3048       H  0.86724570  0.91101143  0.24277725     0.07700
C3049       C  0.96968824  0.59823758  0.26712605    -0.21900
C3050       C  0.93048346  0.58158993  0.26822313     0.10100
C3051       C  0.90907170  0.54466505  0.26018516     0.10500
C3052       C  0.92747322  0.52746744  0.24994080    -0.16800
C3053       C  0.96659225  0.54348731  0.25042004    -0.27200
C3054       C  0.98742789  0.57801762  0.26101037     0.18800
C3055       C  0.91350314  0.60353021  0.27792329     0.12800
C3056       C  0.86726664  0.52156215  0.26297030    -0.11600
H3057       H  0.91107468  0.00041901  0.24250589     0.13000
C3058       C  0.52762990  0.59351723  0.26747876    -0.22400
H3059       H  0.98686007  0.62652129  0.27267141     0.08700
C3060       C  0.92868790  0.62625656  0.29671779     0.05000
C3061       C  0.91398302  0.64887538  0.30356342    -0.19700
C3062       C  0.87909257  0.64304887  0.29605713    -0.11900
C3063       C  0.86350578  0.62037945  0.27733739     0.13700
C3064       C  0.88257474  0.60337377  0.26765312    -0.22400
C3065       C  0.95759451  0.62493414  0.31155132    -0.05500
H3066       H  0.92753897  0.66785231  0.31698819     0.15300
C3067       C  0.82597376  0.61173339  0.26810841    -0.15600
H3068       H  0.87179973  0.58793241  0.25264027     0.09600
H3069       H  0.54590046  0.61915335  0.25812745     0.07400
H3070       H  0.53073831  0.60035764  0.28519625     0.08600
H3071       H  0.53676735  0.57281333  0.26537865     0.07700
H3072       H  0.85336046  0.51730802  0.24679854     0.02600
H3073       H  0.85552059  0.53380177  0.27452885     0.03000
H3074       H  0.86039584  0.99403544  0.26992980     0.06500
H3075       H  0.94797586  0.62168681  0.32882373     0.05500
H3076       H  0.98451424  0.65123614  0.31008855    -0.00200
H3077       H  0.96197173  0.60093791  0.30831595     0.01200
H3078       H  0.82770631  0.63661203  0.26005765     0.04900
H3079       H  0.80454319  0.60148850  0.28127063     0.06800
H3080       H  0.81642088  0.58974793  0.25542750     0.07700
C3081       C  0.62951837  0.53862333  0.27118256    -0.21900
C3082       C  0.64826170  0.57762443  0.27247855     0.10100
C3083       C  0.63044090  0.59656927  0.26307895     0.10500
C3084       C  0.59723281  0.57637104  0.25111934    -0.16800
C3085       C  0.57691389  0.53743488  0.25200031    -0.27200
C3086       C  0.59303004  0.51852799  0.26306418     0.18800
C3087       C  0.68660539  0.59716150  0.28270360     0.12800
C3088       C  0.64380117  0.63737171  0.26626088    -0.11600
H3089       H  0.58597577  0.59132824  0.24206227     0.13000
C3090       C  0.57274847  0.97746135  0.26703295    -0.22400
H3091       H  0.64291366  0.52324023  0.27712515     0.08700
C3092       C  0.69625417  0.58258774  0.30116823     0.05000
C3093       C  0.73350754  0.59907501  0.30800794    -0.19700
C3094       C  0.76049544  0.63409749  0.30032981    -0.11900
C3095       C  0.75096654  0.64971176  0.28235091     0.13700
C3096       C  0.71514657  0.62967059  0.27291793    -0.22400
C3097       C  0.66815930  0.55180279  0.31548528    -0.05500
H3098       H  0.74066660  0.58561297  0.32091267     0.15300
C3099       C  0.77692859  0.68794726  0.27349636    -0.15600
H3100       H  0.70916245  0.64036780  0.25815466     0.09600
H3101       H  0.56847659  0.97195740  0.28490663     0.07400
H3102       H  0.58913541  0.96452972  0.26082183     0.08600
H3103       H  0.54544271  0.96444533  0.25908093     0.07700
H3104       H  0.65426407  0.65238283  0.25048238     0.02600
H3105       H  0.66571150  0.65009132  0.27897532     0.03000
H3106       H  0.62008084  0.64112436  0.27195248     0.06500
H3107       H  0.67512538  0.56003749  0.33280434     0.05500
H3108       H  0.66982422  0.52602986  0.31284922    -0.00200
H3109       H  0.63915278  0.54654165  0.31299837     0.01200
H3110       H  0.79947164  0.68773282  0.26362158     0.04900
H3111       H  0.78868237  0.70814020  0.28711255     0.06800
H3112       H  0.76196537  0.69778906  0.26244970     0.07700
C3113       C  0.58841070  0.70417041  0.86941454    -0.21900
C3114       C  0.61557345  0.70256570  0.88259324     0.10100
C3115       C  0.65373296  0.72804023  0.87928964     0.10500
C3116       C  0.66376867  0.75583319  0.86339732    -0.16800
C3117       C  0.63655617  0.75819602  0.85054164    -0.27200
C3118       C  0.59835546  0.73160094  0.85331406     0.18800
C3119       C  0.60305451  0.67381556  0.89976246     0.12800
C3120       C  0.68365758  0.72634186  0.89280979    -0.11600
H3121       H  0.69299235  0.77626828  0.86119643     0.13000
C3122       C  0.56720400  0.73163317  0.84024836    -0.22400
H3123       H  0.55913270  0.68409565  0.87193888     0.08700
C3124       C  0.58852055  0.67798226  0.91982866     0.05000
C3125       C  0.57384829  0.64840423  0.93483250    -0.19700
C3126       C  0.57352225  0.61493054  0.93012020    -0.11900
C3127       C  0.59058471  0.61198469  0.91056549     0.13700
C3128       C  0.60436307  0.64123765  0.89543865    -0.22400
C3129       C  0.58805403  0.71339347  0.92519509    -0.05500
H3130       H  0.56123092  0.65089496  0.94988111     0.15300
C3131       C  0.59575696  0.57907524  0.90521915    -0.15600
H3132       H  0.61629588  0.63866504  0.88012223     0.09600
H3133       H  0.54818804  0.73593855  0.85134615     0.07400
H3134       H  0.55108872  0.70452801  0.83183829     0.08600
H3135       H  0.57738761  0.75342015  0.82759060     0.07700
H3136       H  0.68268400  0.69924282  0.89029188     0.02600
H3137       H  0.67909099  0.72947775  0.91041241     0.03000
H3138       H  0.71207485  0.74870979  0.88822169     0.06500
H3139       H  0.07610293  0.71218054  0.94169341     0.05500
H3140       H  0.57085811  0.71842647  0.91301179    -0.00200
H3141       H  0.61706058  0.73708807  0.92487012     0.01200
H3142       H  0.57821740  0.56415542  0.89088197     0.04900
H3143       H  0.58897930  0.55936444  0.91903025     0.06800
H3144       H  0.62557094  0.58894880  0.90107335     0.07700
C3145       C  0.79695987  0.87750612  0.86625195    -0.21900
C3146       C  0.79773919  0.90444302  0.88048962     0.10100
C3147       C  0.76959543  0.91465523  0.87942084     0.10500
C3148       C  0.74077027  0.89718185  0.86419808    -0.16800
C3149       C  0.73944565  0.86967622  0.85021447    -0.27200
C3150       C  0.76766150  0.85939854  0.85129581     0.18800
C3151       C  0.82760998  0.92063843  0.89697045     0.12800
C3152       C  0.76957243  0.94332188  0.89463204    -0.11600
H3153       H  0.71873944  0.90454072  0.86342659     0.13000
C3154       C  0.76690384  0.82854132  0.83778947    -0.22400
H3155       H  0.81867770  0.86971453  0.86735664     0.08700
C3156       C  0.82479254  0.90233712  0.91698176     0.05000
C3157       C  0.85433443  0.91841267  0.93197768    -0.19700
C3158       C  0.88673652  0.95200317  0.92716064    -0.11900
C3159       C  0.88900678  0.97071945  0.90720757     0.13700
C3160       C  0.85920316  0.95472582  0.89238395    -0.22400
C3161       C  0.79073670  0.86579351  0.92237480    -0.05500
H3162       H  0.85260782  0.90412952  0.94723070     0.15300
C3163       C  0.92221147  0.00782514  0.90155746    -0.15600
H3164       H  0.86062854  0.96859587  0.87700761     0.09600
H3165       H  0.76755682  0.80739190  0.84881317     0.07400
H3166       H  0.79182399  0.83997596  0.82691787     0.08600
H3167       H  0.74148827  0.81413172  0.82753990     0.07700
H3168       H  0.79544500  0.97029388  0.89214555     0.02600
H3169       H  0.76837025  0.93420768  0.91188206     0.03000
H3170       H  0.74515203  0.94762523  0.89169580     0.06500
H3171       H  0.79300132  0.85534465  0.93877956     0.05500
H3172       H  0.78734015  0.84464831  0.91005636    -0.00200
H3173       H  0.76542325  0.86916387  0.92227105     0.01200
H3174       H  0.94750357  0.00490108  0.89910737     0.04900
H3175       H  0.92723175  0.52796606  0.91488330     0.06800
H3176       H  0.91761401  0.51947422  0.88616647     0.07700
C3177       C  0.62564752  0.91363730  0.87194118    -0.21900
C3178       C  0.60063760  0.88862771  0.88736537     0.10100
C3179       C  0.59056785  0.85080163  0.88645244     0.10500
C3180       C  0.60557189  0.83869038  0.86987921    -0.16800
C3181       C  0.63024018  0.86350622  0.85417736    -0.27200
C3182       C  0.64130656  0.90170878  0.85557513     0.18800
C3183       C  0.58380271  0.90241762  0.90360862     0.12800
C3184       C  0.56408698  0.82333233  0.90295494    -0.11600
H3185       H  0.59794217  0.80957790  0.86908967     0.13000
C3186       C  0.67067244  0.93083490  0.84095121    -0.22400
H3187       H  0.63345079  0.94277517  0.87292887     0.08700
C3188       C  0.60151517  0.91803780  0.92364641     0.05000
C3189       C  0.58493421  0.93249073  0.93788384    -0.19700
C3190       C  0.55142344  0.93205770  0.93225505    -0.11900
C3191       C  0.53314243  0.91509294  0.91240712     0.13700
C3192       C  0.54965957  0.90046841  0.89838203    -0.22400
C3193       C  0.63800249  0.91980547  0.92979356    -0.05500
H3194       H  0.59881367  0.94528219  0.95309985     0.15300
C3195       C  0.49590594  0.91153713  0.90598797    -0.15600
H3196       H  0.53619505  0.88790051  0.88302475     0.09600
H3197       H  0.69327432  0.95227476  0.85117828     0.07400
H3198       H  0.65789027  0.94427075  0.83095191     0.08600
H3199       H  0.68404965  0.91959168  0.82985513     0.07700
H3200       H  0.53660165  0.82252345  0.90211350     0.02600
H3201       H  0.57576388  0.83164454  0.91968565     0.03000
H3202       H  0.55942585  0.79484614  0.89990786     0.06500
H3203       H  0.64806518  0.93289741  0.94605334     0.05500
H3204       H  0.65973737  0.93638134  0.91743465    -0.00200
H3205       H  0.63437597  0.89133587  0.93045922     0.01200
H3206       H  0.48451675  0.39464738  0.89094469     0.04900
H3207       H  0.49893421  0.43928924  0.90252777     0.06800
H3208       H  0.47525435  0.89773463  0.91935158     0.07700
C3209       C  0.79092559  0.87753143  0.77686705    -0.21900
C3210       C  0.81530902  0.91374906  0.78393971     0.10100
C3211       C  0.80210752  0.93083000  0.79882361     0.10500
C3212       C  0.76508649  0.91100998  0.80652837    -0.16800
C3213       C  0.74125968  0.87373207  0.80067949    -0.27200
C3214       C  0.75439234  0.85704931  0.78526317     0.18800
C3215       C  0.85396808  0.93363220  0.77478865     0.12800
C3216       C  0.82750399  0.96935606  0.80732768    -0.11600
H3217       H  0.75518247  0.92414574  0.81810196     0.13000
C3218       C  0.73191816  0.81735369  0.77797291    -0.22400
H3219       H  0.80090009  0.86470938  0.76510057     0.08700
C3220       C  0.88184805  0.92434465  0.78060753     0.05000
C3221       C  0.91701543  0.94235467  0.77008071    -0.19700
C3222       C  0.92488743  0.96923652  0.75370483    -0.11900
C3223       C  0.89720425  0.97970501  0.74883080     0.13700
C3224       C  0.86231803  0.96158736  0.75930510    -0.22400
C3225       C  0.87443641  0.89545278  0.79790973    -0.05500
H3226       H  0.93794141  0.93435501  0.77403746     0.15300
C3227       C  0.90266901  0.00968603  0.73276465    -0.15600
H3228       H  0.84099315  0.96890577  0.75500724     0.09600
H3229       H  0.74724819  0.80213430  0.78209441     0.07400
H3230       H  0.72771979  0.81648897  0.75997601     0.08600
H3231       H  0.70429748  0.80253611  0.78581091     0.07700
H3232       H  0.83704187  0.98970976  0.79365317     0.02600
H3233       H  0.85221513  0.97015386  0.81540095     0.03000
H3234       H  0.81311437  0.97796345  0.81952324     0.06500
H3235       H  0.89940445  0.89208948  0.80087703     0.05500
H3236       H  0.85111435  0.86818536  0.79273442    -0.00200
H3237       H  0.86681743  0.90376158  0.81354397     0.01200
H3238       H  0.88044838  0.99804283  0.72008511     0.04900
H3239       H  0.92975994  0.02185494  0.72430739     0.06800
H3240       H  0.90072971  0.03229094  0.74144666     0.06300
C3241       C  0.56812505  0.87248975  0.79882260    -0.21900
C3242       C  0.58795098  0.90229063  0.78452873     0.10100
C3243       C  0.62547294  0.91295458  0.77928010     0.10500
C3244       C  0.64263809  0.89408076  0.78903544    -0.16800
C3245       C  0.62315099  0.86495229  0.80398815    -0.27200
C3246       C  0.58485108  0.85321695  0.80827247     0.18800
C3247       C  0.56826860  0.92111677  0.77488351     0.12800
C3248       C  0.64723876  0.94411543  0.76335667    -0.11600
H3249       H  0.67174152  0.90284555  0.78551887     0.13000
C3250       C  0.56009280  0.81982251  0.82203780    -0.22400
H3251       H  0.53906622  0.86387603  0.80243631     0.08700
C3252       C  0.54153678  0.90434308  0.75815157     0.05000
C3253       C  0.52354123  0.92306315  0.74955825    -0.19700
C3254       C  0.53303995  0.95917861  0.75632689    -0.11900
C3255       C  0.55867939  0.97527250  0.77392484     0.13700
C3256       C  0.57582219  0.95584338  0.78296247    -0.22400
C3257       C  0.53319886  0.86741650  0.74866562    -0.05500
H3258       H  0.50322164  0.91016830  0.73656862     0.15300
C3259       C  0.56975971  0.01334344  0.78275588    -0.15600
H3260       H  0.59584205  0.96807397  0.79617095     0.09600
H3261       H  0.53611281  0.79964948  0.81206140     0.07400
H3262       H  0.54918782  0.82844651  0.83621492     0.08600
H3263       H  0.57482059  0.80538402  0.82823650     0.07700
H3264       H  0.64957496  0.97035385  0.76968349     0.02600
H3265       H  0.63270119  0.93756751  0.74729301     0.03000
H3266       H  0.67597993  0.94850247  0.76076894     0.06500
H3267       H  0.51259126  0.85893515  0.73509401     0.05500
H3268       H  0.52150125  0.84556456  0.76150414    -0.00200
H3269       H  0.55933919  0.86925383  0.74207023     0.01200
H3270       H  0.54576559  0.01321348  0.79117759     0.04900
H3271       H  0.58001853  0.03423364  0.76943435     0.06800
H3272       H  0.59259119  0.52235475  0.79501060     0.07700
C3273       C  0.58799743  0.70780738  0.77764793    -0.21900
C3274       C  0.60073852  0.68337112  0.78436980     0.10100
C3275       C  0.63181564  0.69618151  0.79847221     0.10500
C3276       C  0.64866323  0.73284399  0.80604142    -0.16800
C3277       C  0.63402612  0.75656328  0.80090141    -0.27200
C3278       C  0.60374370  0.74404515  0.78597266     0.18800
C3279       C  0.58183216  0.64491419  0.77576813     0.12800
C3280       C  0.64622639  0.67078555  0.80629255    -0.11600
H3281       H  0.67248067  0.74259646  0.81695826     0.13000
C3282       C  0.58572267  0.76679817  0.77924356    -0.22400
H3283       H  0.56465399  0.69804334  0.76634799     0.08700
C3284       C  0.54588157  0.61784816  0.78287338     0.05000
C3285       C  0.52801905  0.58291468  0.77257898    -0.19700
C3286       C  0.54498193  0.57491571  0.75496897    -0.11900
C3287       C  0.58256811  0.60129182  0.74932412     0.13700
C3288       C  0.60005732  0.63588597  0.75961886    -0.22400
C3289       C  0.52630589  0.62607007  0.80110659    -0.05500
H3290       H  0.99979320  0.56269896  0.77736722     0.15300
C3291       C  0.60589135  0.59459794  0.73279429    -0.15600
H3292       H  0.62807724  0.65646187  0.75463270     0.09600
H3293       H  0.55552231  0.75161913  0.78354501     0.07400
H3294       H  0.58856644  0.77148709  0.76126737     0.08600
H3295       H  0.59793127  0.79397568  0.78733978     0.07700
H3296       H  0.65633703  0.66119974  0.79220668     0.02600
H3297       H  0.62343387  0.64635348  0.81476269     0.03000
H3298       H  0.66981698  0.68495163  0.81797284     0.06500
H3299       H  0.99869414  0.60169924  0.80495046     0.05500
H3300       H  0.52159689  0.64946948  0.79636433    -0.00200
H3301       H  0.54377122  0.63365670  0.81612953     0.01200
H3302       H  0.61622777  0.61676604  0.72010875     0.04900
H3303       H  0.59050023  0.56782317  0.72439594     0.06800
H3304       H  0.63038990  0.59532766  0.74110070     0.07700
C3305       C  0.61601658  0.69839163  0.59596177    -0.21900
C3306       C  0.59232868  0.70004648  0.58001075     0.10100
C3307       C  0.58464001  0.72979506  0.57980700     0.10500
C3308       C  0.60184267  0.75798287  0.59531845    -0.16800
C3309       C  0.62714954  0.75753571  0.61069178    -0.27200
C3310       C  0.63428439  0.72713236  0.61104338     0.18800
C3311       C  0.57773813  0.67139220  0.56288892     0.12800
C3312       C  0.55939403  0.73247580  0.56277937    -0.11600
H3313       H  0.59631542  0.78114159  0.59505136     0.13000
C3314       C  0.66245034  0.72473091  0.62584013    -0.22400
H3315       H  0.62170270  0.67530202  0.59592803     0.08700
C3316       C  0.60098596  0.67154469  0.54581334     0.05000
C3317       C  0.58627838  0.64311264  0.53026568    -0.19700
C3318       C  0.54880144  0.61487747  0.53129112    -0.11900
C3319       C  0.52537837  0.61517680  0.54829426     0.13700
C3320       C  0.54032104  0.64348339  0.56395208    -0.22400
C3321       C  0.64117130  0.70182672  0.54391833    -0.05500
H3322       H  0.60414159  0.64289101  0.51723247     0.15300
C3323       C  0.48517284  0.58510654  0.55064920    -0.15600
H3324       H  0.52290924  0.64372868  0.57725174     0.09600
H3325       H  0.68371616  0.72218713  0.61581993     0.07400
H3326       H  0.64812259  0.69993816  0.63656652     0.08600
H3327       H  0.67748206  0.74933070  0.63624615     0.07700
H3328       H  0.53086220  0.70824360  0.56420022     0.02600
H3329       H  0.57065899  0.73295161  0.54617636     0.03000
H3330       H  0.55713139  0.75808298  0.56473363     0.06500
H3331       H  0.65503268  0.69817881  0.52923471     0.05500
H3332       H  0.65718382  0.70162578  0.55854129    -0.00200
H3333       H  0.64236705  0.72924906  0.54261231     0.01200
H3334       H  0.98368648  0.55754009  0.55181536     0.04900
H3335       H  0.96861362  0.58564517  0.53639416     0.06800
H3336       H  0.47196499  0.58887642  0.56560094     0.07700
C3337       C  0.77406978  0.86397573  0.57599059    -0.21900
C3338       C  0.79992278  0.90151864  0.57858128     0.10100
C3339       C  0.79646785  0.92141046  0.59630595     0.10500
C3340       C  0.76628380  0.90320112  0.61086576    -0.16800
C3341       C  0.74018459  0.86534216  0.60836243    -0.27200
C3342       C  0.74479029  0.84536584  0.59085572     0.18800
C3343       C  0.83075463  0.91863359  0.56257696     0.12800
C3344       C  0.82446096  0.96172251  0.59971848    -0.11600
H3345       H  0.76268420  0.91872210  0.62403272     0.13000
C3346       C  0.72078080  0.80419667  0.58767972    -0.22400
H3347       H  0.77741683  0.84878572  0.56250321     0.08700
C3348       C  0.86321019  0.91527710  0.56496858     0.05000
C3349       C  0.89018660  0.92861446  0.54832623    -0.19700
C3350       C  0.88531325  0.94495770  0.52926564    -0.11900
C3351       C  0.85221589  0.94752696  0.52669056     0.13700
C3352       C  0.82556541  0.93470593  0.54358034    -0.22400
C3353       C  0.86923584  0.89748523  0.58504873    -0.05500
H3354       H  0.91554213  0.92673880  0.55035426     0.15300
C3355       C  0.84299751  0.96171309  0.50610077    -0.15600
H3356       H  0.79993362  0.93610813  0.54162236     0.09600
H3357       H  0.73881457  0.79107129  0.58638796     0.07400
H3358       H  0.70406664  0.79863834  0.57245314     0.08600
H3359       H  0.70195151  0.79075903  0.60156303     0.07700
H3360       H  0.82469975  0.97818222  0.58523502     0.02600
H3361       H  0.85281557  0.96495404  0.60198415     0.03000
H3362       H  0.81767731  0.97310811  0.61441431     0.06500
H3363       H  0.89627374  0.89731367  0.58434808     0.05500
H3364       H  0.84642496  0.86829310  0.58651484    -0.00200
H3365       H  0.86936906  0.91301540  0.59988182     0.01200
H3366       H  0.81538092  0.94028863  0.49980366     0.04900
H3367       H  0.86345938  0.96785654  0.49273750     0.06800
H3368       H  0.84146192  0.48726393  0.50982736     0.07700
C3369       C  0.59813954  0.95199516  0.56358503    -0.21900
C3370       C  0.58920795  0.91481071  0.56128567     0.10100
C3371       C  0.56641857  0.89378964  0.54369309     0.10500
C3372       C  0.55265074  0.91043240  0.52894343    -0.16800
C3373       C  0.56187155  0.94787463  0.53101985    -0.27200
C3374       C  0.58526423  0.96903320  0.54855506     0.18800
C3375       C  0.60460408  0.89875389  0.57734437     0.12800
C3376       C  0.55730782  0.85409955  0.54016775    -0.11600
H3377       H  0.53489709  0.89419450  0.51554306     0.13000
C3378       C  0.59605678  0.50921787  0.55203054    -0.22400
H3379       H  0.61546196  0.96779711  0.57724114     0.08700
C3380       C  0.64312008  0.90973568  0.57774338     0.05000
C3381       C  0.65637677  0.89371776  0.59316324    -0.19700
C3382       C  0.63204641  0.86666674  0.60797025    -0.11900
C3383       C  0.59328284  0.85475674  0.60713318     0.13700
C3384       C  0.58022587  0.87175395  0.59220374    -0.22400
C3385       C  0.67012223  0.93757418  0.56156529    -0.05500
H3386       H  0.68595919  0.90215928  0.59360923     0.15300
C3387       C  0.56479485  0.82323824  0.62090038    -0.15600
H3388       H  0.55062417  0.86319405  0.59175161     0.09600
H3389       H  0.61345259  0.52633168  0.53813731     0.07400
H3390       H  0.61278582  0.52052914  0.56718846     0.08600
H3391       H  0.57053228  0.51206860  0.55350843     0.07700
H3392       H  0.54108447  0.83661914  0.55425228     0.02600
H3393       H  0.58361190  0.85272287  0.53840717     0.03000
H3394       H  0.54032038  0.84222436  0.52515926     0.06500
H3395       H  0.69888325  0.94172609  0.56366016     0.05500
H3396       H  0.67146051  0.96486468  0.56381734    -0.00200
H3397       H  0.66085533  0.92766489  0.54462324     0.01200
H3398       H  0.55040001  0.83369181  0.63187772     0.04900
H3399       H  0.57718913  0.80967572  0.63102073     0.06800
H3400       H  0.54372737  0.80157332  0.61004673     0.07700
C3401       C  0.62233548  0.70859745  0.68448885    -0.21900
C3402       C  0.58565480  0.68474064  0.67753534     0.10100
C3403       C  0.56799867  0.69808003  0.66310888     0.10500
C3404       C  0.58820932  0.73443856  0.65505230    -0.16800
C3405       C  0.62610987  0.75751076  0.66042956    -0.27200
C3406       C  0.64299204  0.74477125  0.67604532     0.18800
C3407       C  0.56599216  0.64622667  0.68609837     0.12800
C3408       C  0.52836869  0.67355712  0.65552904    -0.11600
H3409       H  0.57485131  0.74444485  0.64359929     0.13000
C3410       C  0.68309469  0.76711254  0.68326334    -0.22400
H3411       H  0.63536978  0.69843793  0.69608912     0.08700
C3412       C  0.57443769  0.61866610  0.67884096     0.05000
C3413       C  0.55688520  0.58343484  0.68889032    -0.19700
C3414       C  0.53189735  0.57564104  0.70639765    -0.11900
C3415       C  0.52113734  0.60257087  0.71218838     0.13700
C3416       C  0.53877508  0.63749974  0.70216753    -0.22400
C3417       C  0.60228979  0.62664122  0.66073488    -0.05500
H3418       H  0.56449513  0.56274906  0.68400940     0.15300
C3419       C  0.49110025  0.59613279  0.72860119    -0.15600
H3420       H  0.53167852  0.65849403  0.70724451     0.09600
H3421       H  0.69839728  0.75187907  0.67920479     0.07400
H3422       H  0.68412708  0.77135814  0.70124552     0.08600
H3423       H  0.69798235  0.79453305  0.67535436     0.07700
H3424       H  0.50895063  0.66495248  0.66970374     0.02600
H3425       H  0.52612762  0.64849312  0.64743075     0.03000
H3426       H  0.51937318  0.68807781  0.64362289     0.06500
H3427       H  0.60515744  0.60188441  0.65677858     0.05500
H3428       H  0.63020127  0.64930640  0.66571181    -0.00200
H3429       H  0.59300590  0.63511020  0.64572224     0.01200
H3430       H  0.50280098  0.61778216  0.74148122     0.04900
H3431       H  0.97920153  0.56895780  0.73677326     0.06800
H3432       H  0.96796796  0.59801557  0.72024540     0.07700
C3433       C  0.80525931  0.86999852  0.66420412    -0.21900
C3434       C  0.81578381  0.90099628  0.67751564     0.10100
C3435       C  0.78954873  0.91310501  0.68200551     0.10500
C3436       C  0.75386443  0.89481307  0.67218452    -0.16800
C3437       C  0.74380540  0.86453604  0.65814795    -0.27200
C3438       C  0.76950215  0.85110358  0.65492151     0.18800
C3439       C  0.85439727  0.92004295  0.68661027     0.12800
C3440       C  0.79919499  0.94516193  0.69722184    -0.11600
H3441       H  0.73418480  0.90486836  0.67492473     0.13000
C3442       C  0.76018585  0.81648015  0.64223330    -0.22400
H3443       H  0.82514056  0.86028477  0.66111734     0.08700
C3444       C  0.86535842  0.90400196  0.70351080     0.05000
C3445       C  0.90187140  0.92350975  0.71186179    -0.19700
C3446       C  0.92719735  0.95984827  0.70485204    -0.11900
C3447       C  0.91651928  0.97520621  0.68716714     0.13700
C3448       C  0.88056087  0.95467652  0.67805358    -0.22400
C3449       C  0.83806502  0.86709181  0.71347203    -0.05500
H3450       H  0.91006152  0.91111001  0.72493328     0.15300
C3451       C  0.94049310  0.51388696  0.67836536    -0.15600
H3452       H  0.87220715  0.96658156  0.66476685     0.09600
H3453       H  0.76385465  0.79662560  0.65290064     0.07400
H3454       H  0.77914859  0.82353207  0.62789490     0.08600
H3455       H  0.73106312  0.80228276  0.63643449     0.07700
H3456       H  0.82311628  0.97079993  0.69053923     0.02600
H3457       H  0.80687481  0.93895971  0.71354477     0.03000
H3458       H  0.77526912  0.95046816  0.69940053     0.06500
H3459       H  0.85080895  0.85934450  0.72717386     0.05500
H3460       H  0.82860555  0.84493685  0.70094160    -0.00200
H3461       H  0.81346269  0.86848278  0.72001185     0.01200
H3462       H  0.94766853  0.51249337  0.66099501     0.04900
H3463       H  0.96649978  0.52993879  0.68760462     0.06800
H3464       H  0.92482905  0.52952720  0.67929475     0.07700
C3465       C  0.59747157  0.95857034  0.70003603    -0.21900
C3466       C  0.57747488  0.93086241  0.68470106     0.10100
C3467       C  0.54016402  0.92168738  0.67984374     0.10500
C3468       C  0.52354259  0.94002108  0.69088543    -0.16800
C3469       C  0.54314619  0.96697727  0.70694754    -0.27200
C3470       C  0.58117525  0.97685760  0.71108693     0.18800
C3471       C  0.59614598  0.91115788  0.67473542     0.12800
C3472       C  0.51796691  0.89256923  0.66302944    -0.11600
H3473       H  0.99465107  0.93232824  0.68752440     0.13000
C3474       C  0.60609011  0.00647261  0.72688902    -0.22400
H3475       H  0.62614412  0.96566874  0.70369220     0.08700
C3476       C  0.62511966  0.92838565  0.65915392     0.05000
C3477       C  0.64316783  0.90921355  0.65120448    -0.19700
C3478       C  0.63204133  0.87242800  0.65762852    -0.11900
C3479       C  0.60286951  0.85534293  0.67337679     0.13700
C3480       C  0.58601047  0.87521885  0.68196528    -0.22400
C3481       C  0.63622078  0.96655632  0.65037996    -0.05500
H3482       H  0.66548629  0.92269877  0.63930516     0.15300
C3483       C  0.58704074  0.81580479  0.68090239    -0.15600
H3484       H  0.56404924  0.86218818  0.69414499     0.09600
H3485       H  0.63026170  0.52881839  0.71796822     0.07400
H3486       H  0.61671057  0.99436108  0.73942634     0.08600
H3487       H  0.59155479  0.51901252  0.73544883     0.07700
H3488       H  0.51480993  0.86536510  0.66820645     0.02600
H3489       H  0.53265867  0.90060474  0.64700559     0.03000
H3490       H  0.98953788  0.88922376  0.66084121     0.06500
H3491       H  0.65843263  0.97541803  0.63770674     0.05500
H3492       H  0.64700489  0.98716042  0.66382773    -0.00200
H3493       H  0.61152401  0.96655347  0.64282189     0.01200
H3494       H  0.59136518  0.81505887  0.69880627     0.04900
H3495       H  0.59982287  0.80128717  0.67264040     0.06800
H3496       H  0.55656806  0.80029015  0.67735987     0.07700
loop_ 
_geom_bond_atom_site_label_1 
_geom_bond_atom_site_label_2 
_geom_bond_distance 
_geom_bond_site_symmetry_2 
_ccdc_geom_bond_type 
C1            H2   1.111       .  S
C1            C7   1.554       .  S
C1            C6   1.557       .  S
C1            C5   1.557       .  S
C3            H4   1.112       .  S
C3            C9   1.523       .  S
C3            C8   1.522       .  S
C3           C10   1.527       .  S
C5            C8   1.376       .  D
C5          C856   1.506       .  S
C6            C9   1.375       .  D
C6          C815   1.496       .  S
C7           C10   1.375       .  D
C7          C783   1.495       .  S
C8          C760   1.481       .  S
C9          C719   1.491       .  S
C10         C687   1.486       .  S
C11          H12   1.111       .  S
C11          C17   1.556       .  S
C11          C16   1.557       .  S
C11          C15   1.555       .  S
C13          H14   1.113       .  S
C13          C19   1.516       .  S
C13          C18   1.516       .  S
C13          C20   1.518       .  S
C15          C18   1.373       .  D
C15         C591   1.501       .  S
C16          C19   1.376       .  D
C16         C623   1.494       .  S
C17          C20   1.374       .  D
C17         C655   1.496       .  S
C18         C527   1.473       .  S
C19         C559   1.479       .  S
C20         C495   1.480       .  S
C21          H22   1.110       .  S
C21          C26   1.548       .  S
C21        C2649   1.542   1_445  S
C21         C899   1.551   1_545  S
C23          H24   1.106       .  S
C23        C1777   1.542       .  S
C23        C2650   1.542   1_545  S
C23         C904   1.551   1_545  S
C25         C895   1.551       .  S
C25          C28   1.383       .  D
C25         C847   1.508       .  S
C26          C29   1.374       .  D
C26         C792   1.497       .  S
C27        C2643   1.542       .  S
C27          C30   1.379       .  D
C27         C824   1.504       .  S
C28        C2645   1.542   1_455  S
C28         C632   1.501       .  S
C29        C1771   1.542   1_455  S
C29         C664   1.501       .  S
C30         C897   1.551       .  S
C30         C600   1.505       .  S
C31          H32   1.094       .  S
C31          C37   1.545       .  S
C31          C36   1.548       .  S
C31          C35   1.557       .  S
C33          H34   1.112       .  S
C33          C39   1.526       .  S
C33          C38   1.516       .  S
C33          C40   1.516       .  S
C35          C38   1.384       .  D
C35         C472   1.502       .  S
C36          C39   1.381       .  D
C36         C440   1.507       .  S
C37          C40   1.370       .  D
C37         C399   1.490       .  S
C38         C312   1.490       .  S
C39         C376   1.481       .  S
C40         C335   1.476       .  S
C41          H42   1.107       .  S
C41          C47   1.526       .  S
C41          C46   1.533       .  S
C41          C45   1.525       .  S
C43          H44   1.111       .  S
C43          C49   1.551       .  S
C43          C48   1.552       .  S
C43          C50   1.545       .  S
C45          C48   1.380       .  D
C45         C120   1.492       .  S
C46          C49   1.383       .  D
C46         C175   1.488       .  S
C47          C50   1.367       .  D
C47         C152   1.482       .  S
C48         C280   1.496       .  S
C49         C239   1.504       .  S
C50         C207   1.484       .  S
C51          H52   1.110       .  S
C51          C57   1.538   1_565  S
C51        C2678   1.554   1_455  S
C51        C1803   1.553   1_465  S
C53          H54   1.111       .  S
C53          C60   1.555       .  S
C53        C2681   1.544   1_445  S
C53        C1806   1.537   1_455  S
C55        C1799   1.553   1_545  S
C55          C58   1.377       .  D
C55         C248   1.498       .  S
C56        C2673   1.554       .  S
C56          C59   1.384       .  D
C56         C216   1.515       .  S
C57          C60   1.371       .  D
C57         C271   1.492       .  S
C58        C1801   1.537       .  S
C58         C431   1.498       .  S
C59        C2675   1.544       .  S
C59         C408   1.500       .  S
C60         C463   1.499       .  S
Zn61         O66   2.031       .  S
Zn61       O1818   2.015   1_456  S
Zn61        O951   2.016   1_556  S
Zn61        O939   1.964   1_455  S
Zn62         O73   1.988       .  S
Zn62       O2689   1.980   1_445  S
Zn62        O943   1.979   1_545  S
Zn62         O65   1.928   1_445  S
Zn63         O68   2.007   1_556  S
Zn63         O71   2.021       .  S
Zn63        O948   2.000   1_556  S
Zn63       O2687   1.956       .  S
Zn64         O75   2.018       .  S
Zn64         O76   1.988   1_556  S
Zn64       O1820   1.993   1_456  S
Zn64         O65   1.953   1_445  S
O65        Zn935   1.964   1_655  S
O65       Zn2685   1.956       .  S
O66          C78   1.275       .  A
O67       Zn2684   1.980       .  S
O67          C79   1.268       .  A
O68          C80   1.272       .  A
O69        Zn936   1.979       .  S
O69          C78   1.269       .  A
O70       Zn1809   2.015   1_554  S
O70          C80   1.273       .  A
O71          C79   1.274       .  A
O72       Zn1812   1.993   1_554  S
O72          C81   1.271       .  A
O73          C82   1.269       .  A
O74        Zn937   2.000   1_544  S
O74          C81   1.271       .  A
O75          C82   1.272       .  A
O76          C83   1.270       .  A
O77        Zn935   2.016   1_544  S
O77          C83   1.273       .  A
C78         C568   1.477       .  S
C79         C536   1.474       .  S
C80         C143   1.469       .  S
C81         C184   1.467       .  S
C82         C504   1.476       .  S
C83         C111   1.469       .  S
Zn84         O93   2.029       .  S
Zn84        O963   2.007   1_545  S
Zn84       O1848   2.000       .  S
Zn84       O1836   1.961       .  S
Zn85         O90   2.035       .  S
Zn85         O92   2.013       .  S
Zn85       O1844   2.022       .  S
Zn85       O2710   1.956       .  S
Zn86         O97   1.967       .  S
Zn86       O1839   1.963   1_455  S
Zn86       O2716   1.973   1_445  S
Zn86         O88   1.919       .  S
Zn87         O95   2.037       .  S
Zn87         O99   2.003       .  S
Zn87        O972   2.013   1_545  S
Zn87         O88   1.959       .  S
O88       Zn1832   1.961   1_455  S
O88       Zn2707   1.956   1_445  S
O89        Zn958   2.007       .  S
O89         C101   1.272       .  A
O90         C102   1.275       .  A
O91       Zn1834   1.963       .  S
O91         C103   1.265       .  A
O92         C101   1.274       .  A
O93         C103   1.274       .  A
O94       Zn2708   1.973       .  S
O94         C102   1.267       .  A
O95         C104   1.273       .  A
O96       Zn1833   2.022   1_455  S
O96         C105   1.275       .  A
O97         C104   1.269       .  A
O98        Zn961   2.013       .  S
O98         C105   1.273       .  A
O99         C106   1.273       .  A
O100      Zn1832   2.000   1_455  S
O100        C106   1.271       .  A
C101        C728   1.475       .  S
C102        C344   1.478       .  S
C103        C367   1.473       .  S
C104        C303   1.483       .  S
C105        C751   1.485       .  S
C106        C696   1.474       .  S
C107        C108   1.399       .  A
C107        C112   1.402       .  A
C107        H117   1.084       .  S
C108        C113   1.472       .  S
C108        C109   1.409       .  A
C109        C110   1.398       .  A
C109        C114   1.507       .  S
C110        C111   1.403       .  A
C110        H115   1.084       .  S
C111        C112   1.418       .  A
C112        C116   1.509   1_545  S
C113        C118   1.408       .  A
C113        C122   1.394       .  A
C114        H130   1.110       .  S
C114        H131   1.110       .  S
C114        H132   1.111       .  S
C116        H127   1.111       .  S
C116        H128   1.110       .  S
C116        H129   1.106       .  S
C118        C119   1.403       .  A
C118        C123   1.505       .  S
C119        C120   1.406       .  A
C119        H124   1.084       .  S
C120        C121   1.421       .  A
C121        C122   1.397       .  A
C121        C125   1.505       .  S
C122        H126   1.085       .  S
C123        H133   1.110       .  S
C123        H134   1.110       .  S
C123        H135   1.110       .  S
C125        H136   1.111       .  S
C125        H137   1.105       .  S
C125        H138   1.105       .  S
C139        C140   1.398       .  A
C139        C144   1.400       .  A
C139        H149   1.085       .  S
C140        C145   1.474       .  S
C140        C141   1.411       .  A
C141        C142   1.403       .  A
C141        C146   1.507       .  S
C142        C143   1.402       .  A
C142        H147   1.084       .  S
C143        C144   1.417       .  A
C144        C148   1.509       .  S
C145        C150   1.409       .  A
C145        C154   1.400       .  A
C146        H162   1.110       .  S
C146        H163   1.110       .  S
C146        H164   1.111       .  S
C148        H159   1.111       .  S
C148        H160   1.110       .  S
C148        H161   1.107       .  S
C150        C151   1.398       .  A
C150        C155   1.507       .  S
C151        C152   1.401       .  A
C151        H156   1.081       .  S
C152        C153   1.413       .  A
C153        C154   1.402       .  A
C153        C157   1.504       .  S
C154        H158   1.085       .  S
C155        H165   1.111       .  S
C155        H166   1.110       .  S
C155        H167   1.110       .  S
C157        H168   1.110       .  S
C157        H169   1.104       .  S
C157        H170   1.110       .  S
C171        C172   1.394       .  A
C171        C176   1.398       .  A
C171        H181   1.085       .  S
C172        C177   1.467       .  S
C172        C173   1.407       .  A
C173        C174   1.398       .  A
C173        C178   1.506       .  S
C174        C175   1.406       .  A
C174        H179   1.084       .  S
C175        C176   1.420       .  A
C176        C180   1.506       .  S
C177        C182   1.408       .  A
C177        C186   1.396       .  A
C178        H194   1.110       .  S
C178        H195   1.110       .  S
C178        H196   1.111       .  S
C180        H191   1.111       .  S
C180        H192   1.105       .  S
C180        H193   1.104       .  S
C182        C183   1.400       .  A
C182        C187   1.507       .  S
C183        C184   1.404       .  A
C183        H188   1.084       .  S
C184        C185   1.419       .  A
C185        C186   1.397       .  A
C185       C1937   1.511       .  S
C186        H190   1.085       .  S
C187        H198   1.110       .  S
C187        H199   1.110       .  S
C187       H1071   1.111       .  S
C189        H200   1.110       .  S
C189        H201   1.105       .  S
C189        H202   1.111       .  S
C189       C1933   1.511   1_455  S
H197       C1061   1.111       .  S
C203        C204   1.406       .  A
C203        C208   1.407       .  A
C203        H213   1.083       .  S
C204        C209   1.494       .  S
C204        C205   1.418       .  A
C205        C206   1.403       .  A
C205        C210   1.509       .  S
C206        C207   1.400       .  A
C206        H211   1.084       .  S
C207        C208   1.414       .  A
C208        C212   1.506       .  S
C209        C214   1.416       .  A
C209        C218   1.394       .  A
C210        H226   1.107       .  S
C210        H227   1.111       .  S
C210        H228   1.111       .  S
C212        H223   1.107       .  S
C212        H224   1.110       .  S
C212        H225   1.110       .  S
C214        C215   1.415       .  A
C214        C219   1.506       .  S
C215        C216   1.409       .  A
C215        H220   1.082       .  S
C216        C217   1.427       .  A
C217        C218   1.396       .  A
C217        C221   1.500       .  S
C218        H222   1.085       .  S
C219        H229   1.111       .  S
C219        H230   1.108       .  S
C219        H231   1.111       .  S
C221        H232   1.110       .  S
C221        H233   1.087       .  S
C221        H234   1.111       .  S
C235        C236   1.403       .  A
C235        C240   1.404       .  A
C235        H245   1.085       .  S
C236        C241   1.495       .  S
C236        C237   1.417       .  A
C237        C238   1.411       .  A
C237        C242   1.509       .  S
C238        C239   1.406       .  A
C238        H243   1.084       .  S
C239        C240   1.419       .  A
C240        C244   1.505       .  S
C241        C246   1.417       .  A
C241        C250   1.400       .  A
C242        H258   1.110       .  S
C242        H259   1.105       .  S
C242        H260   1.111       .  S
C244        H255   1.110       .  S
C244        H256   1.110       .  S
C244        H257   1.106       .  S
C246        C247   1.413       .  A
C246        C251   1.508       .  S
C247        C248   1.405       .  A
C247       H1126   1.082   1_545  S
C248        C249   1.417       .  A
C249        C250   1.401       .  A
C249       C2001   1.504       .  S
C250        H254   1.085       .  S
C251        H262   1.110       .  S
C251        H263   1.105       .  S
C251       H1135   1.111   1_545  S
H252       C1121   1.082       .  S
C253        H264   1.106       .  S
C253        H265   1.110       .  S
C253       H2014   1.109       .  S
C253       C1997   1.504   1_455  S
H261       C1125   1.111       .  S
H266       C2001   1.109       .  S
C267        C268   1.399       .  A
C267        C272   1.398       .  A
C267        H277   1.085       .  S
C268        C273   1.489       .  S
C268        C269   1.417       .  A
C269        C270   1.410       .  A
C269        C274   1.507       .  S
C270        C271   1.404       .  A
C270        H275   1.082       .  S
C271        C272   1.413       .  A
C272        C276   1.499   1_545  S
C273        C278   1.416       .  A
C273        C282   1.402       .  A
C274        H290   1.109       .  S
C274        H291   1.105       .  S
C274        H292   1.111       .  S
C276        H287   1.107       .  S
C276        H288   1.110       .  S
C276        H289   1.100       .  S
C278        C279   1.410       .  A
C278        C283   1.508       .  S
C279        C280   1.405       .  A
C279        H284   1.082       .  S
C280        C281   1.415       .  A
C281        C282   1.399       .  A
C281        C285   1.504       .  S
C282        H286   1.084       .  S
C283        H293   1.111       .  S
C283        H294   1.110       .  S
C283        H295   1.105       .  S
C285        H296   1.110       .  S
C285        H297   1.107       .  S
C285        H298   1.110       .  S
C299        C300   1.403       .  A
C299        C304   1.409       .  A
C299        H309   1.084       .  S
C300        C305   1.479       .  S
C300        C301   1.408       .  A
C301        C302   1.394       .  A
C301        C306   1.504       .  S
C302        C303   1.405       .  A
C302        H307   1.084       .  S
C303        C304   1.418       .  A
C304        C308   1.506       .  S
C305        C310   1.411       .  A
C305        C314   1.396       .  A
C306        H322   1.109       .  S
C306        H323   1.109       .  S
C306       H1198   1.111       .  S
C308        H319   1.111       .  S
C308        H320   1.110       .  S
C308        H321   1.110       .  S
C310        C311   1.407       .  A
C310        C315   1.504       .  S
C311        C312   1.404       .  A
C311        H316   1.084       .  S
C312        C313   1.417       .  A
C313        C314   1.398       .  A
C313        C317   1.503       .  S
C314        H318   1.085       .  S
C315        H325   1.111       .  S
C315        H326   1.110       .  S
C315        H327   1.110       .  S
C317        H328   1.105       .  S
C317        H329   1.107       .  S
C317        H330   1.111       .  S
H324       C1180   1.111       .  S
C331        C332   1.400       .  A
C331        C336   1.399       .  A
C331        H341   1.084       .  S
C332        C337   1.473       .  S
C332        C333   1.409       .  A
C333        C334   1.400       .  A
C333        C338   1.506       .  S
C334        C335   1.402       .  A
C334        H339   1.084       .  S
C335        C336   1.413       .  A
C336        C340   1.505       .  S
C337        C342   1.410       .  A
C337        C346   1.397       .  A
C338        H354   1.110       .  S
C338        H355   1.110       .  S
C338        H356   1.111       .  S
C340        H351   1.111       .  S
C340        H352   1.110       .  S
C340        H353   1.105       .  S
C342        C343   1.402       .  A
C342        C347   1.506       .  S
C343        C344   1.404       .  A
C343        H348   1.084       .  S
C344        C345   1.421       .  A
C345        C346   1.400       .  A
C345        C349   1.510       .  S
C346        H350   1.085       .  S
C347        H357   1.111       .  S
C347        H358   1.110       .  S
C347        H359   1.110       .  S
C349        H360   1.109       .  S
C349        H361   1.110       .  S
C349        H362   1.111       .  S
C363        C364   1.396       .  A
C363        C368   1.399       .  A
C363        H373   1.085       .  S
C364        C369   1.470       .  S
C364        C365   1.410       .  A
C365        C366   1.401       .  A
C365        C370   1.507       .  S
C366        C367   1.403       .  A
C366        H371   1.084       .  S
C367        C368   1.419       .  A
C368        C372   1.510       .  S
C369        C374   1.407       .  A
C369        C378   1.400       .  A
C370        H386   1.110       .  S
C370        H387   1.110       .  S
C370        H388   1.111       .  S
C372        H383   1.110       .  S
C372        H384   1.111       .  S
C372        H385   1.109       .  S
C374        C375   1.395       .  A
C374        C379   1.507       .  S
C375        C376   1.403       .  A
C375        H380   1.084       .  S
C376        C377   1.418       .  A
C377        C378   1.401       .  A
C377        C381   1.507       .  S
C378        H382   1.085       .  S
C379        H389   1.111       .  S
C379        H390   1.110       .  S
C379        H391   1.110       .  S
C381        H392   1.110       .  S
C381        H393   1.105       .  S
C381        H394   1.110       .  S
C395        C396   1.404       .  A
C395        C400   1.406       .  A
C395        H405   1.084       .  S
C396        C401   1.483       .  S
C396        C397   1.409       .  A
C397        C398   1.403       .  A
C397        C402   1.506       .  S
C398        C399   1.406       .  A
C398        H403   1.084       .  S
C399        C400   1.414       .  A
C400        C404   1.508       .  S
C401        C406   1.411       .  A
C401        C410   1.400       .  A
C402        H418   1.110       .  S
C402        H419   1.110       .  S
C402        H420   1.111       .  S
C404        H415   1.111       .  S
C404        H416   1.108       .  S
C404        H417   1.108       .  S
C406        C407   1.406       .  A
C406        C411   1.506       .  S
C407        C408   1.405       .  A
C407       H2160   1.078       .  S
C408        C409   1.419       .  A
C409        C410   1.403       .  A
C409        C413   1.507       .  S
C410        H414   1.084       .  S
C411        H422   1.110       .  S
C411        H423   1.110       .  S
C411       H2169   1.111       .  S
H412       C2155   1.078       .  S
C413        H424   1.110       .  S
C413        H425   1.108       .  S
C413        H426   1.110       .  S
H421       C2159   1.111       .  S
C427        C428   1.405       .  A
C427        C432   1.398       .  A
C427        H437   1.083       .  S
C428        C433   1.507       .  S
C428        C429   1.425       .  A
C429        C430   1.409       .  A
C429        C434   1.508       .  S
C430        C431   1.403       .  A
C430       H1309   1.084       .  S
C431        C432   1.413       .  A
C432       C2184   1.499       .  S
C433        C438   1.422       .  A
C433        C442   1.409       .  A
C434        H450   1.110       .  S
C434        H451   1.106       .  S
C434       H1326   1.111   1_545  S
H435       C1304   1.084       .  S
C436        H447   1.108       .  S
C436        H448   1.111       .  S
C436        H449   1.094       .  S
C436       C2180   1.499   1_455  S
C438        C439   1.399       .  A
C438        C443   1.511       .  S
C439        C440   1.404       .  A
C439        H444   1.083       .  S
C440        C441   1.419       .  A
C441        C442   1.410       .  A
C441        C445   1.506       .  S
C442        H446   1.082       .  S
C443        H453   1.111       .  S
C443        H454   1.110       .  S
C443        H455   1.107       .  S
C445        H456   1.107       .  S
C445        H457   1.110       .  S
C445        H458   1.111       .  S
H452       C1308   1.111       .  S
C459        C460   1.407       .  A
C459        C464   1.399       .  A
C459        H469   1.082       .  S
C460        C465   1.507       .  S
C460        C461   1.422       .  A
C461        C462   1.405       .  A
C461        C466   1.508       .  S
C462        C463   1.404       .  A
C462        H467   1.083       .  S
C463        C464   1.413       .  A
C464       C1342   1.498   1_545  S
C465        C470   1.419       .  A
C465        C474   1.410       .  A
C466        H482   1.110       .  S
C466        H483   1.107       .  S
C466        H484   1.111       .  S
C468        H479   1.111       .  S
C468        H480   1.108       .  S
C468        H481   1.090       .  S
C468       C1338   1.498       .  S
C470        C471   1.397       .  A
C470        C475   1.506       .  S
C471        C472   1.402       .  A
C471        H476   1.082       .  S
C472        C473   1.418       .  A
C473        C474   1.409       .  A
C473        C477   1.506       .  S
C474        H478   1.081       .  S
C475        H485   1.106       .  S
C475        H486   1.110       .  S
C475        H487   1.108       .  S
C477        H488   1.106       .  S
C477        H489   1.109       .  S
C477        H490   1.111       .  S
C491        C492   1.399       .  A
C491        C496   1.398       .  A
C491        H501   1.085       .  S
C492        C497   1.472       .  S
C492        C493   1.408       .  A
C493        C494   1.399       .  A
C493        C498   1.506       .  S
C494        C495   1.403       .  A
C494        H499   1.084       .  S
C495        C496   1.415       .  A
C496        C500   1.504       .  S
C497        C502   1.410       .  A
C497        C506   1.397       .  A
C498        H514   1.110       .  S
C498        H515   1.110       .  S
C498        H516   1.111       .  S
C500        H511   1.110       .  S
C500        H512   1.111       .  S
C500        H513   1.099       .  S
C502        C503   1.402       .  A
C502        C507   1.507       .  S
C503        C504   1.405       .  A
C503        H508   1.084       .  S
C504        C505   1.419       .  A
C505        C506   1.399       .  A
C505        C509   1.509       .  S
C506        H510   1.085       .  S
C507        H518   1.110       .  S
C507        H519   1.110       .  S
C507       H2265   1.111       .  S
C509        H520   1.110       .  S
C509        H521   1.107       .  S
C509        H522   1.111       .  S
H517       C2255   1.111       .  S
C523        C524   1.401       .  A
C523        C528   1.400       .  A
C523        H533   1.084       .  S
C524        C529   1.470       .  S
C524        C525   1.407       .  A
C525        C526   1.396       .  A
C525        C530   1.507       .  S
C526        C527   1.402       .  A
C526        H531   1.083       .  S
C527        C528   1.412       .  A
C528        C532   1.507       .  S
C529        C534   1.409       .  A
C529        C538   1.397       .  A
C530        H546   1.110       .  S
C530        H547   1.110       .  S
C530        H548   1.111       .  S
C532        H543   1.110       .  S
C532        H544   1.110       .  S
C532        H545   1.107       .  S
C534        C535   1.400       .  A
C534        C539   1.507       .  S
C535        C536   1.404       .  A
C535        H540   1.084       .  S
C536        C537   1.419       .  A
C537        C538   1.400       .  A
C537        C541   1.509       .  S
C538        H542   1.084       .  S
C539        H549   1.111       .  S
C539        H550   1.110       .  S
C539        H551   1.110       .  S
C541        H552   1.109       .  S
C541       H1427   1.110       .  S
C541       H1428   1.111       .  S
H553       C1415   1.110       .  S
H554       C1415   1.111       .  S
C555        C556   1.401       .  A
C555        C560   1.401       .  A
C555        H565   1.084       .  S
C556        C561   1.473       .  S
C556        C557   1.407       .  A
C557        C558   1.398       .  A
C557        C562   1.507       .  S
C558        C559   1.405       .  A
C558        H563   1.085       .  S
C559        C560   1.414       .  A
C560        C564   1.507       .  S
C561        C566   1.410       .  A
C561        C570   1.396       .  A
C562        H578   1.110       .  S
C562        H579   1.110       .  S
C562        H580   1.111       .  S
C564        H575   1.110       .  S
C564        H576   1.110       .  S
C564        H577   1.107       .  S
C566        C567   1.404       .  A
C566        C571   1.506       .  S
C567        C568   1.405       .  A
C567        H572   1.084       .  S
C568        C569   1.419       .  A
C569        C570   1.399       .  A
C569        C573   1.509   1_455  S
C570        H574   1.085       .  S
C571        H581   1.111       .  S
C571        H582   1.110       .  S
C571        H583   1.110       .  S
C573        H586   1.110       .  S
C573       H1458   1.111       .  S
C573       H1459   1.109       .  S
H584       C1447   1.111       .  S
H585       C1447   1.109       .  S
C587        C588   1.402       .  A
C587        C592   1.406       .  A
C587        H597   1.085       .  S
C588        C593   1.490       .  S
C588        C589   1.411       .  A
C589        C590   1.406       .  A
C589        C594   1.507       .  S
C590        C591   1.409       .  A
C590        H595   1.084       .  S
C591        C592   1.420       .  A
C592        C596   1.504       .  S
C593        C598   1.414       .  A
C593        C602   1.396       .  A
C594        H610   1.109       .  S
C594        H611   1.111       .  S
C594        H612   1.111       .  S
C596        H607   1.111       .  S
C596        H608   1.110       .  S
C596        H609   1.098       .  S
C598        C599   1.411       .  A
C598        C603   1.506       .  S
C599        C600   1.406       .  A
C599        H604   1.084       .  S
C600        C601   1.426       .  A
C601        C602   1.401       .  A
C601        C605   1.504       .  S
C602        H606   1.085       .  S
C603        H613   1.111       .  S
C603        H614   1.110       .  S
C603        H615   1.111       .  S
C605        H616   1.110       .  S
C605        H617   1.097       .  S
C605        H618   1.110       .  S
C619        C620   1.397       .  A
C619        C624   1.400       .  A
C619        H629   1.085       .  S
C620        C625   1.485       .  S
C620        C621   1.412       .  A
C621        C622   1.408       .  A
C621        C626   1.506       .  S
C622        C623   1.404       .  A
C622        H627   1.084       .  S
C623        C624   1.421       .  A
C624        C628   1.504       .  S
C625        C630   1.409       .  A
C625        C634   1.401       .  A
C626        H642   1.110       .  S
C626        H643   1.111       .  S
C626        H644   1.111       .  S
C628        H639   1.110       .  S
C628        H640   1.110       .  S
C628        H641   1.099       .  S
C630        C631   1.402       .  A
C630        C635   1.507       .  S
C631        C632   1.407       .  A
C631        H636   1.084       .  S
C632        C633   1.422       .  A
C633        C634   1.408       .  A
C633        C637   1.508       .  S
C634        H638   1.084       .  S
C635        H645   1.111       .  S
C635        H646   1.109       .  S
C635        H647   1.111       .  S
C637        H648   1.107       .  S
C637        H649   1.106       .  S
C637       H1524   1.111       .  S
H650       C1511   1.111       .  S
C651        C652   1.402       .  A
C651        C656   1.405       .  A
C651        H661   1.085       .  S
C652        C657   1.483       .  S
C652        C653   1.409       .  A
C653        C654   1.401       .  A
C653        C658   1.507       .  S
C654        C655   1.408       .  A
C654        H659   1.084       .  S
C655        C656   1.418       .  A
C656        C660   1.505       .  S
C657        C662   1.412       .  A
C657        C666   1.394       .  A
C658        H674   1.109       .  S
C658        H675   1.111       .  S
C658        H676   1.111       .  S
C660        H671   1.110       .  S
C660        H672   1.110       .  S
C660        H673   1.099       .  S
C662        C663   1.409       .  A
C662        C667   1.505       .  S
C663        C664   1.405       .  A
C663       H2416   1.084   1_455  S
C664        C665   1.426       .  A
C665        C666   1.398       .  A
C665        C669   1.506       .  S
C666        H670   1.085       .  S
C667        H678   1.110       .  S
C667        H679   1.111       .  S
C667       H2425   1.111   1_455  S
H668       C2411   1.084       .  S
C669        H680   1.110       .  S
C669        H681   1.098       .  S
C669        H682   1.110       .  S
H677       C2415   1.111       .  S
C683        C684   1.398       .  A
C683        C688   1.398       .  A
C683        H693   1.085       .  S
C684        C689   1.472       .  S
C684        C685   1.407       .  A
C685        C686   1.398       .  A
C685        C690   1.506       .  S
C686        C687   1.404       .  A
C686        H691   1.084       .  S
C687        C688   1.419       .  A
C688        C692   1.505       .  S
C689        C694   1.410       .  A
C689        C698   1.398       .  A
C690        H706   1.110       .  S
C690        H707   1.110       .  S
C690        H708   1.111       .  S
C692        H703   1.111       .  S
C692        H704   1.109       .  S
C692        H705   1.099       .  S
C694        C695   1.399       .  A
C694        C699   1.508       .  S
C695        C696   1.404       .  A
C695        H700   1.084       .  S
C696        C697   1.418       .  A
C697        C698   1.401       .  A
C697        C701   1.508   1_455  S
C698        H702   1.084       .  S
C699        H709   1.111       .  S
C699        H710   1.110       .  S
C699        H711   1.110       .  S
C701        H714   1.111       .  S
C701       H2460   1.110       .  S
C701       H2461   1.110       .  S
H712       C2449   1.110       .  S
H713       C2449   1.110       .  S
C715        C716   1.395       .  A
C715        C720   1.396       .  A
C715        H725   1.085       .  S
C716        C721   1.474       .  S
C716        C717   1.409       .  A
C717        C718   1.405       .  A
C717        C722   1.505       .  S
C718        C719   1.406       .  A
C718        H723   1.084       .  S
C719        C720   1.420       .  A
C720        C724   1.504       .  S
C721        C726   1.408       .  A
C721        C730   1.400       .  A
C722        H738   1.110       .  S
C722        H739   1.110       .  S
C722        H740   1.111       .  S
C724        H735   1.111       .  S
C724        H736   1.110       .  S
C724        H737   1.096       .  S
C726        C727   1.400       .  A
C726        C731   1.507       .  S
C727        C728   1.405       .  A
C727        H732   1.084       .  S
C728        C729   1.418       .  A
C729        C730   1.403       .  A
C729        C733   1.508       .  S
C730        H734   1.085       .  S
C731        H741   1.111       .  S
C731        H742   1.110       .  S
C731        H743   1.110       .  S
C733        H744   1.111       .  S
C733        H745   1.106       .  S
C733       H1620   1.110       .  S
H746       C1607   1.110       .  S
C747        C748   1.400       .  A
C747        C752   1.403       .  A
C747        H757   1.084       .  S
C748        C753   1.483       .  S
C748        C749   1.412       .  A
C749        C750   1.404       .  A
C749        C754   1.507       .  S
C750        C751   1.406       .  A
C750        H755   1.084       .  S
C751        C752   1.420       .  A
C752       C1630   1.509       .  S
C753        C758   1.412       .  A
C753        C762   1.403       .  A
C754        H770   1.109       .  S
C754        H771   1.110       .  S
C754        H772   1.111       .  S
C756        H767   1.110       .  S
C756        H768   1.111       .  S
C756        H769   1.110       .  S
C756       C1626   1.509   1_545  S
C758        C759   1.400       .  A
C758        C763   1.507       .  S
C759        C760   1.402       .  A
C759        H764   1.085       .  S
C760        C761   1.414       .  A
C761        C762   1.403       .  A
C761        C765   1.507       .  S
C762        H766   1.084       .  S
C763        H773   1.111       .  S
C763        H774   1.109       .  S
C763        H775   1.110       .  S
C765        H776   1.110       .  S
C765        H777   1.107       .  S
C765        H778   1.111       .  S
C779        C780   1.401       .  A
C779        C784   1.404       .  A
C779        H789   1.085       .  S
C780        C785   1.481       .  S
C780        C781   1.408       .  A
C781        C782   1.400       .  A
C781        C786   1.507       .  S
C782        C783   1.408       .  A
C782        H787   1.084       .  S
C783        C784   1.418       .  A
C784        C788   1.505       .  S
C785        C790   1.412       .  A
C785        C794   1.393       .  A
C786        H802   1.109       .  S
C786        H803   1.110       .  S
C786        H804   1.111       .  S
C788        H799   1.111       .  S
C788        H800   1.110       .  S
C788        H801   1.099       .  S
C790        C791   1.407       .  A
C790        C795   1.505       .  S
C791        C792   1.404       .  A
C791        H796   1.084       .  S
C792        C793   1.426       .  A
C793        C794   1.397       .  A
C793        C797   1.506   1_455  S
C794        H798   1.085       .  S
C795        H805   1.111       .  S
C795        H806   1.110       .  S
C795        H807   1.111       .  S
C797        H808   1.110   1_655  S
C797       H2557   1.098       .  S
C797       H2558   1.110       .  S
H809       C2545   1.098       .  S
H810       C2545   1.110       .  S
C811        C812   1.397       .  A
C811        C816   1.400       .  A
C811        H821   1.085       .  S
C812        C817   1.488       .  S
C812        C813   1.415       .  A
C813        C814   1.410       .  A
C813        C818   1.506       .  S
C814        C815   1.404       .  A
C814        H819   1.084       .  S
C815        C816   1.421       .  A
C816        C820   1.504       .  S
C817        C822   1.410       .  A
C817        C826   1.401       .  A
C818        H834   1.110       .  S
C818        H835   1.111       .  S
C818        H836   1.111       .  S
C820        H831   1.110       .  S
C820        H832   1.110       .  S
C820        H833   1.099       .  S
C822        C823   1.403       .  A
C822        C827   1.507       .  S
C823        C824   1.409       .  A
C823        H828   1.084       .  S
C824        C825   1.422       .  A
C825        C826   1.407       .  A
C825       C1703   1.505       .  S
C826        H830   1.085       .  S
C827        H837   1.111       .  S
C827        H838   1.109       .  S
C827        H839   1.111       .  S
C829        H840   1.110       .  S
C829        H841   1.097       .  S
C829        H842   1.111       .  S
C829       C1699   1.505   1_545  S
C843        C844   1.396       .  A
C843        C848   1.401       .  A
C843        H853   1.085       .  S
C844        C849   1.491       .  S
C844        C845   1.414       .  A
C845        C846   1.413       .  A
C845        C850   1.505       .  S
C846        C847   1.407       .  A
C846       H2599   1.084   1_455  S
C847        C848   1.426       .  A
C848        C852   1.502       .  S
C849        C854   1.411       .  A
C849        C858   1.400       .  A
C850        H866   1.110       .  S
C850        H867   1.111       .  S
C850       H2616   1.111   1_455  S
H851       C2594   1.084       .  S
C852        H864   1.110       .  S
C852       H1737   1.110       .  S
C852       H1739   1.094       .  S
C854        C855   1.407       .  A
C854        C859   1.506       .  S
C855        C856   1.409       .  A
C855        H860   1.084       .  S
C856        C857   1.422       .  A
C857        C858   1.407       .  A
C857        C861   1.502       .  S
C858        H862   1.085       .  S
C859        H869   1.111       .  S
C859        H870   1.109       .  S
C859        H871   1.111       .  S
C861        H872   1.110       .  S
C861        H873   1.093       .  S
C861        H874   1.111       .  S
H863       C1726   1.110       .  S
H865       C1726   1.094       .  S
H868       C2598   1.111       .  S
C875        H876   1.111       .  S
C875        C881   1.554       .  S
C875        C880   1.557       .  S
C875        C879   1.557       .  S
C877        H878   1.112       .  S
C877        C883   1.523       .  S
C877        C882   1.522       .  S
C877        C884   1.527       .  S
C879        C882   1.376       .  D
C879       C1730   1.506       .  S
C880        C883   1.375       .  D
C880       C1689   1.496       .  S
C881        C884   1.375       .  D
C881       C1657   1.495       .  S
C882       C1634   1.481       .  S
C883       C1593   1.491       .  S
C884       C1561   1.486       .  S
C885        H886   1.111       .  S
C885        C891   1.556       .  S
C885        C890   1.557       .  S
C885        C889   1.555       .  S
C887        H888   1.113       .  S
C887        C893   1.516       .  S
C887        C892   1.516       .  S
C887        C894   1.518       .  S
C889        C892   1.373       .  D
C889       C1465   1.501       .  S
C890        C893   1.376       .  D
C890       C1497   1.494       .  S
C891        C894   1.374       .  D
C891       C1529   1.496       .  S
C892       C1401   1.473       .  S
C893       C1433   1.479       .  S
C894       C1369   1.480       .  S
C895        H896   1.110       .  S
C895       C1775   1.542   1_455  S
C895        C900   1.548       .  S
C897        H898   1.106       .  S
C897       C2651   1.542       .  S
C897       C1776   1.542       .  S
C899        C902   1.383       .  D
C899       C1721   1.508       .  S
C900        C903   1.374       .  D
C900       C1666   1.497       .  S
C901       C1769   1.542   1_565  S
C901        C904   1.379       .  D
C901       C1698   1.504       .  S
C902       C1771   1.542   1_465  S
C902       C1506   1.501       .  S
C903       C2645   1.542   1_455  S
C903       C1538   1.501       .  S
C904       C1474   1.505       .  S
C905        H906   1.094       .  S
C905        C911   1.545       .  S
C905        C910   1.548       .  S
C905        C909   1.557       .  S
C907        H908   1.112       .  S
C907        C913   1.526       .  S
C907        C912   1.516       .  S
C907        C914   1.516       .  S
C909        C912   1.384       .  D
C909       C1346   1.502       .  S
C910        C913   1.381       .  D
C910       C1314   1.507       .  S
C911        C914   1.370       .  D
C911       C1273   1.490       .  S
C912       C1186   1.490       .  S
C913       C1250   1.481       .  S
C914       C1209   1.476       .  S
C915        H916   1.107       .  S
C915        C921   1.526       .  S
C915        C920   1.533       .  S
C915        C919   1.525       .  S
C917        H918   1.111       .  S
C917        C923   1.551       .  S
C917        C922   1.552       .  S
C917        C924   1.545       .  S
C919        C922   1.380       .  D
C919        C994   1.492       .  S
C920        C923   1.383       .  D
C920       C1049   1.488       .  S
C921        C924   1.367       .  D
C921       C1026   1.482       .  S
C922       C1154   1.496       .  S
C923       C1113   1.504       .  S
C924       C1081   1.484       .  S
C925        H926   1.110       .  S
C925        C931   1.538       .  S
C925       C1804   1.554   1_455  S
C925       C2677   1.553   1_455  S
C927        H928   1.111       .  S
C927       C1807   1.544   1_455  S
C927       C2680   1.537   1_455  S
C927        C934   1.555       .  S
C929       C2673   1.553       .  S
C929        C932   1.377       .  D
C929       C1122   1.498       .  S
C930       C1799   1.554       .  S
C930        C933   1.384       .  D
C930       C1090   1.515       .  S
C931        C934   1.371       .  D
C931       C1145   1.492       .  S
C932       C2675   1.537       .  S
C932       C1305   1.498       .  S
C933       C1801   1.544   1_565  S
C933       C1282   1.500       .  S
C934       C1337   1.499       .  S
Zn935       O940   2.031       .  S
Zn935      O2692   2.015   1_456  S
Zn936      O1815   1.980   1_455  S
Zn936       O947   1.988       .  S
Zn936       O939   1.928   1_455  S
Zn937       O942   2.007   1_556  S
Zn937       O945   2.021       .  S
Zn937      O1813   1.956       .  S
Zn938      O2694   1.993   1_456  S
Zn938       O949   2.018       .  S
Zn938       O950   1.988   1_556  S
Zn938       O939   1.953   1_455  S
O939      Zn1811   1.956       .  S
O940        C952   1.275       .  A
O941      Zn1810   1.980   1_565  S
O941        C953   1.268       .  A
O942        C954   1.272       .  A
O943        C952   1.269       .  A
O944      Zn2683   2.015   1_554  S
O944        C954   1.273       .  A
O945        C953   1.274       .  A
O946      Zn2686   1.993   1_554  S
O946        C955   1.271       .  A
O947        C956   1.269       .  A
O948        C955   1.271       .  A
O949        C956   1.272       .  A
O950        C957   1.270       .  A
O951        C957   1.273       .  A
C952       C1442   1.477       .  S
C953       C1410   1.474       .  S
C954       C1017   1.469       .  S
C955       C1058   1.467       .  S
C956       C1378   1.476       .  S
C957        C985   1.469       .  S
Zn958       O967   2.029       .  S
Zn958      O2722   2.000       .  S
Zn958      O2710   1.961       .  S
Zn959       O964   2.035       .  S
Zn959       O966   2.013       .  S
Zn959      O2718   2.022       .  S
Zn959      O1836   1.956   1_565  S
Zn960      O2713   1.963   1_455  S
Zn960      O1842   1.973   1_455  S
Zn960       O971   1.967       .  S
Zn960       O962   1.919       .  S
Zn961       O969   2.037       .  S
Zn961       O973   2.003       .  S
Zn961       O962   1.959       .  S
O962      Zn2706   1.961   1_455  S
O962      Zn1833   1.956   1_455  S
O963        C975   1.272       .  A
O964        C976   1.275       .  A
O965      Zn2708   1.963       .  S
O965        C977   1.265       .  A
O966        C975   1.274       .  A
O967        C977   1.274       .  A
O968      Zn1834   1.973   1_565  S
O968        C976   1.267       .  A
O969        C978   1.273       .  A
O970      Zn2707   2.022   1_455  S
O970        C979   1.275       .  A
O971        C978   1.269       .  A
O972        C979   1.273       .  A
O973        C980   1.273       .  A
O974      Zn2706   2.000   1_455  S
O974        C980   1.271       .  A
C975       C1602   1.475       .  S
C976       C1218   1.478       .  S
C977       C1241   1.473       .  S
C978       C1177   1.483       .  S
C979       C1625   1.485       .  S
C980       C1570   1.474       .  S
C981        C982   1.399       .  A
C981        C986   1.402       .  A
C981        H991   1.084       .  S
C982        C987   1.472       .  S
C982        C983   1.409       .  A
C983        C984   1.398       .  A
C983        C988   1.507       .  S
C984        C985   1.403       .  A
C984        H989   1.084       .  S
C985        C986   1.418       .  A
C986        C990   1.509       .  S
C987        C992   1.408       .  A
C987        C996   1.394       .  A
C988       H1004   1.110       .  S
C988       H1005   1.110       .  S
C988       H1006   1.111       .  S
C990       H1001   1.111       .  S
C990       H1002   1.110       .  S
C990       H1003   1.106       .  S
C992        C993   1.403       .  A
C992        C997   1.505       .  S
C993        C994   1.406       .  A
C993        H998   1.084       .  S
C994        C995   1.421       .  A
C995        C996   1.397       .  A
C995        C999   1.505       .  S
C996       H1000   1.085       .  S
C997       H1007   1.110       .  S
C997       H1008   1.110       .  S
C997       H1009   1.110       .  S
C999       H1010   1.111       .  S
C999       H1011   1.105       .  S
C999       H1012   1.105       .  S
C1013      C1014   1.398       .  A
C1013      C1018   1.400       .  A
C1013      H1023   1.085       .  S
C1014      C1019   1.474       .  S
C1014      C1015   1.411       .  A
C1015      C1016   1.403       .  A
C1015      C1020   1.507       .  S
C1016      C1017   1.402       .  A
C1016      H1021   1.084       .  S
C1017      C1018   1.417       .  A
C1018      C1022   1.509       .  S
C1019      C1024   1.409       .  A
C1019      C1028   1.400       .  A
C1020      H1036   1.110       .  S
C1020      H1037   1.110       .  S
C1020      H1038   1.111       .  S
C1022      H1033   1.111       .  S
C1022      H1034   1.110       .  S
C1022      H1035   1.107       .  S
C1024      C1025   1.398       .  A
C1024      C1029   1.507       .  S
C1025      C1026   1.401       .  A
C1025      H1030   1.081       .  S
C1026      C1027   1.413       .  A
C1027      C1028   1.402       .  A
C1027      C1031   1.504       .  S
C1028      H1032   1.085       .  S
C1029      H1039   1.111       .  S
C1029      H1040   1.110       .  S
C1029      H1041   1.110       .  S
C1031      H1042   1.110       .  S
C1031      H1043   1.104       .  S
C1031      H1044   1.110       .  S
C1045      C1046   1.394       .  A
C1045      C1050   1.398       .  A
C1045      H1055   1.085       .  S
C1046      C1051   1.467       .  S
C1046      C1047   1.407       .  A
C1047      C1048   1.398       .  A
C1047      C1052   1.506       .  S
C1048      C1049   1.406       .  A
C1048      H1053   1.084       .  S
C1049      C1050   1.420       .  A
C1050      C1054   1.506       .  S
C1051      C1056   1.408       .  A
C1051      C1060   1.396       .  A
C1052      H1068   1.110       .  S
C1052      H1069   1.110       .  S
C1052      H1070   1.111       .  S
C1054      H1065   1.111       .  S
C1054      H1066   1.105       .  S
C1054      H1067   1.104       .  S
C1056      C1057   1.400       .  A
C1056      C1061   1.507       .  S
C1057      C1058   1.404       .  A
C1057      H1062   1.084       .  S
C1058      C1059   1.419       .  A
C1059      C1060   1.397       .  A
C1059      C2811   1.511       .  S
C1060      H1064   1.085       .  S
C1061      H1072   1.110       .  S
C1061      H1073   1.110       .  S
C1063      H1074   1.110       .  S
C1063      H1075   1.105       .  S
C1063      H1076   1.111       .  S
C1063      C2807   1.511   1_455  S
C1077      C1078   1.406       .  A
C1077      C1082   1.407       .  A
C1077      H1087   1.083       .  S
C1078      C1083   1.494       .  S
C1078      C1079   1.418       .  A
C1079      C1080   1.403       .  A
C1079      C1084   1.509       .  S
C1080      C1081   1.400       .  A
C1080      H1085   1.084       .  S
C1081      C1082   1.414       .  A
C1082      C1086   1.506       .  S
C1083      C1088   1.416       .  A
C1083      C1092   1.394       .  A
C1084      H1100   1.107       .  S
C1084      H1101   1.111       .  S
C1084      H1102   1.111       .  S
C1086      H1097   1.107       .  S
C1086      H1098   1.110       .  S
C1086      H1099   1.110       .  S
C1088      C1089   1.415       .  A
C1088      C1093   1.506       .  S
C1089      C1090   1.409       .  A
C1089      H1094   1.082       .  S
C1090      C1091   1.427       .  A
C1091      C1092   1.396       .  A
C1091      C1095   1.500       .  S
C1092      H1096   1.085       .  S
C1093      H1103   1.111       .  S
C1093      H1104   1.108       .  S
C1093      H1105   1.111       .  S
C1095      H1106   1.110       .  S
C1095      H1107   1.087       .  S
C1095      H1108   1.111       .  S
C1109      C1110   1.403       .  A
C1109      C1114   1.404       .  A
C1109      H1119   1.085       .  S
C1110      C1115   1.495       .  S
C1110      C1111   1.417       .  A
C1111      C1112   1.411       .  A
C1111      C1116   1.509       .  S
C1112      C1113   1.406       .  A
C1112      H1117   1.084       .  S
C1113      C1114   1.419       .  A
C1114      C1118   1.505       .  S
C1115      C1120   1.417       .  A
C1115      C1124   1.400       .  A
C1116      H1132   1.110       .  S
C1116      H1133   1.105       .  S
C1116      H1134   1.111       .  S
C1118      H1129   1.110       .  S
C1118      H1130   1.110       .  S
C1118      H1131   1.106       .  S
C1120      C1121   1.413       .  A
C1120      C1125   1.508       .  S
C1121      C1122   1.405       .  A
C1122      C1123   1.417       .  A
C1123      C1124   1.401       .  A
C1123      C2875   1.504       .  S
C1124      H1128   1.085       .  S
C1125      H1136   1.110       .  S
C1125      H1137   1.105       .  S
C1127      H1138   1.106       .  S
C1127      H1139   1.110       .  S
C1127      H2888   1.109       .  S
C1127      C2871   1.504   1_455  S
H1140      C2875   1.109       .  S
C1141      C1142   1.399       .  A
C1141      C1146   1.398       .  A
C1141      H1151   1.085       .  S
C1142      C1147   1.489       .  S
C1142      C1143   1.417       .  A
C1143      C1144   1.410       .  A
C1143      C1148   1.507       .  S
C1144      C1145   1.404       .  A
C1144      H1149   1.082       .  S
C1145      C1146   1.413       .  A
C1146      C1150   1.499       .  S
C1147      C1152   1.416       .  A
C1147      C1156   1.402       .  A
C1148      H1164   1.109       .  S
C1148      H1165   1.105       .  S
C1148      H1166   1.111       .  S
C1150      H1161   1.107       .  S
C1150      H1162   1.110       .  S
C1150      H1163   1.100       .  S
C1152      C1153   1.410       .  A
C1152      C1157   1.508       .  S
C1153      C1154   1.405       .  A
C1153      H1158   1.082       .  S
C1154      C1155   1.415       .  A
C1155      C1156   1.399       .  A
C1155      C1159   1.504       .  S
C1156      H1160   1.084       .  S
C1157      H1167   1.111       .  S
C1157      H1168   1.110       .  S
C1157      H1169   1.105       .  S
C1159      H1170   1.110       .  S
C1159      H1171   1.107       .  S
C1159      H1172   1.110       .  S
C1173      C1174   1.403       .  A
C1173      C1178   1.409       .  A
C1173      H1183   1.084       .  S
C1174      C1179   1.479       .  S
C1174      C1175   1.408       .  A
C1175      C1176   1.394       .  A
C1175      C1180   1.504       .  S
C1176      C1177   1.405       .  A
C1176      H1181   1.084       .  S
C1177      C1178   1.418       .  A
C1178      C1182   1.506       .  S
C1179      C1184   1.411       .  A
C1179      C1188   1.396       .  A
C1180      H1196   1.109       .  S
C1180      H1197   1.109       .  S
C1182      H1193   1.111       .  S
C1182      H1194   1.110       .  S
C1182      H1195   1.110       .  S
C1184      C1185   1.407       .  A
C1184      C1189   1.504       .  S
C1185      C1186   1.404       .  A
C1185      H1190   1.084       .  S
C1186      C1187   1.417       .  A
C1187      C1188   1.398       .  A
C1187      C1191   1.503       .  S
C1188      H1192   1.085       .  S
C1189      H1199   1.111       .  S
C1189      H1200   1.110       .  S
C1189      H1201   1.110       .  S
C1191      H1202   1.105       .  S
C1191      H1203   1.107       .  S
C1191      H1204   1.111       .  S
C1205      C1206   1.400       .  A
C1205      C1210   1.399       .  A
C1205      H1215   1.084       .  S
C1206      C1211   1.473       .  S
C1206      C1207   1.409       .  A
C1207      C1208   1.400       .  A
C1207      C1212   1.506       .  S
C1208      C1209   1.402       .  A
C1208      H1213   1.084       .  S
C1209      C1210   1.413       .  A
C1210      C1214   1.505       .  S
C1211      C1216   1.410       .  A
C1211      C1220   1.397       .  A
C1212      H1228   1.110       .  S
C1212      H1229   1.110       .  S
C1212      H1230   1.111       .  S
C1214      H1225   1.111       .  S
C1214      H1226   1.110       .  S
C1214      H1227   1.105       .  S
C1216      C1217   1.402       .  A
C1216      C1221   1.506       .  S
C1217      C1218   1.404       .  A
C1217      H1222   1.084       .  S
C1218      C1219   1.421       .  A
C1219      C1220   1.400       .  A
C1219      C1223   1.510       .  S
C1220      H1224   1.085       .  S
C1221      H1231   1.111       .  S
C1221      H1232   1.110       .  S
C1221      H1233   1.110       .  S
C1223      H1234   1.109       .  S
C1223      H1235   1.110       .  S
C1223      H1236   1.111       .  S
C1237      C1238   1.396       .  A
C1237      C1242   1.399       .  A
C1237      H1247   1.085       .  S
C1238      C1243   1.470       .  S
C1238      C1239   1.410       .  A
C1239      C1240   1.401       .  A
C1239      C1244   1.507       .  S
C1240      C1241   1.403       .  A
C1240      H1245   1.084       .  S
C1241      C1242   1.419       .  A
C1242      C1246   1.510       .  S
C1243      C1248   1.407       .  A
C1243      C1252   1.400       .  A
C1244      H1260   1.110       .  S
C1244      H1261   1.110       .  S
C1244      H1262   1.111       .  S
C1246      H1257   1.110       .  S
C1246      H1258   1.111       .  S
C1246      H1259   1.109       .  S
C1248      C1249   1.395       .  A
C1248      C1253   1.507       .  S
C1249      C1250   1.403       .  A
C1249      H1254   1.084       .  S
C1250      C1251   1.418       .  A
C1251      C1252   1.401       .  A
C1251      C1255   1.507       .  S
C1252      H1256   1.085       .  S
C1253      H1263   1.111       .  S
C1253      H1264   1.110       .  S
C1253      H1265   1.110       .  S
C1255      H1266   1.110       .  S
C1255      H1267   1.105       .  S
C1255      H1268   1.110       .  S
C1269      C1270   1.404       .  A
C1269      C1274   1.406       .  A
C1269      H1279   1.084       .  S
C1270      C1275   1.483       .  S
C1270      C1271   1.409       .  A
C1271      C1272   1.403       .  A
C1271      C1276   1.506       .  S
C1272      C1273   1.406       .  A
C1272      H1277   1.084       .  S
C1273      C1274   1.414       .  A
C1274      C1278   1.508       .  S
C1275      C1280   1.411       .  A
C1275      C1284   1.400       .  A
C1276      H1292   1.110       .  S
C1276      H1293   1.110       .  S
C1276      H1294   1.111       .  S
C1278      H1289   1.111       .  S
C1278      H1290   1.108       .  S
C1278      H1291   1.108       .  S
C1280      C1281   1.406       .  A
C1280      C1285   1.506       .  S
C1281      C1282   1.405       .  A
C1281      H3034   1.078       .  S
C1282      C1283   1.419       .  A
C1283      C1284   1.403       .  A
C1283      C1287   1.507       .  S
C1284      H1288   1.084       .  S
C1285      H3043   1.111       .  S
C1285      H1296   1.110       .  S
C1285      H1297   1.110       .  S
H1286      C3029   1.078       .  S
C1287      H1298   1.110       .  S
C1287      H1299   1.108       .  S
C1287      H1300   1.110       .  S
H1295      C3033   1.111       .  S
C1301      C1302   1.405       .  A
C1301      C1306   1.398       .  A
C1301      H1311   1.083       .  S
C1302      C1307   1.507       .  S
C1302      C1303   1.425       .  A
C1303      C1304   1.409       .  A
C1303      C1308   1.508       .  S
C1304      C1305   1.403       .  A
C1305      C1306   1.413       .  A
C1306      C3058   1.499       .  S
C1307      C1312   1.422       .  A
C1307      C1316   1.409       .  A
C1308      H1324   1.110       .  S
C1308      H1325   1.106       .  S
C1310      H1321   1.108       .  S
C1310      H1322   1.111       .  S
C1310      H1323   1.094       .  S
C1310      C3054   1.499   1_455  S
C1312      C1313   1.399       .  A
C1312      C1317   1.511       .  S
C1313      C1314   1.404       .  A
C1313      H1318   1.083       .  S
C1314      C1315   1.419       .  A
C1315      C1316   1.410       .  A
C1315      C1319   1.506       .  S
C1316      H1320   1.082       .  S
C1317      H1327   1.111       .  S
C1317      H1328   1.110       .  S
C1317      H1329   1.107       .  S
C1319      H1330   1.107       .  S
C1319      H1331   1.110       .  S
C1319      H1332   1.111       .  S
C1333      C1334   1.407       .  A
C1333      C1338   1.399       .  A
C1333      H1343   1.082       .  S
C1334      C1339   1.507       .  S
C1334      C1335   1.422       .  A
C1335      C1336   1.405       .  A
C1335      C1340   1.508       .  S
C1336      C1337   1.404       .  A
C1336      H1341   1.083       .  S
C1337      C1338   1.413       .  A
C1339      C1344   1.419       .  A
C1339      C1348   1.410       .  A
C1340      H1356   1.110       .  S
C1340      H1357   1.107       .  S
C1340      H1358   1.111       .  S
C1342      H1353   1.111       .  S
C1342      H1354   1.108       .  S
C1342      H1355   1.090       .  S
C1344      C1345   1.397       .  A
C1344      C1349   1.506       .  S
C1345      C1346   1.402       .  A
C1345      H1350   1.082       .  S
C1346      C1347   1.418       .  A
C1347      C1348   1.409       .  A
C1347      C1351   1.506       .  S
C1348      H1352   1.081       .  S
C1349      H1359   1.106       .  S
C1349      H1360   1.110       .  S
C1349      H1361   1.108       .  S
C1351      H1362   1.106       .  S
C1351      H1363   1.109       .  S
C1351      H1364   1.111       .  S
C1365      C1366   1.399       .  A
C1365      C1370   1.398       .  A
C1365      H1375   1.085       .  S
C1366      C1371   1.472       .  S
C1366      C1367   1.408       .  A
C1367      C1368   1.399       .  A
C1367      C1372   1.506       .  S
C1368      C1369   1.403       .  A
C1368      H1373   1.084       .  S
C1369      C1370   1.415       .  A
C1370      C1374   1.504       .  S
C1371      C1376   1.410       .  A
C1371      C1380   1.397       .  A
C1372      H1388   1.110       .  S
C1372      H1389   1.110       .  S
C1372      H1390   1.111       .  S
C1374      H1385   1.110       .  S
C1374      H1386   1.111       .  S
C1374      H1387   1.099       .  S
C1376      C1377   1.402       .  A
C1376      C1381   1.507       .  S
C1377      C1378   1.405       .  A
C1377      H1382   1.084       .  S
C1378      C1379   1.419       .  A
C1379      C1380   1.399       .  A
C1379      C1383   1.509       .  S
C1380      H1384   1.085       .  S
C1381      H3139   1.111       .  S
C1381      H1392   1.110       .  S
C1381      H1393   1.110       .  S
C1383      H1394   1.110       .  S
C1383      H1395   1.107       .  S
C1383      H1396   1.111       .  S
H1391      C3129   1.111       .  S
C1397      C1398   1.401       .  A
C1397      C1402   1.400       .  A
C1397      H1407   1.084       .  S
C1398      C1403   1.470       .  S
C1398      C1399   1.407       .  A
C1399      C1400   1.396       .  A
C1399      C1404   1.507       .  S
C1400      C1401   1.402       .  A
C1400      H1405   1.083       .  S
C1401      C1402   1.412       .  A
C1402      C1406   1.507       .  S
C1403      C1408   1.409       .  A
C1403      C1412   1.397       .  A
C1404      H1420   1.110       .  S
C1404      H1421   1.110       .  S
C1404      H1422   1.111       .  S
C1406      H1417   1.110       .  S
C1406      H1418   1.110       .  S
C1406      H1419   1.107       .  S
C1408      C1409   1.400       .  A
C1408      C1413   1.507       .  S
C1409      C1410   1.404       .  A
C1409      H1414   1.084       .  S
C1410      C1411   1.419       .  A
C1411      C1412   1.400       .  A
C1411      C1415   1.509   1_565  S
C1412      H1416   1.084       .  S
C1413      H1423   1.111       .  S
C1413      H1424   1.110       .  S
C1413      H1425   1.110       .  S
C1415      H1426   1.109       .  S
C1429      C1430   1.401       .  A
C1429      C1434   1.401       .  A
C1429      H1439   1.084       .  S
C1430      C1435   1.473       .  S
C1430      C1431   1.407       .  A
C1431      C1432   1.398       .  A
C1431      C1436   1.507       .  S
C1432      C1433   1.405       .  A
C1432      H1437   1.085       .  S
C1433      C1434   1.414       .  A
C1434      C1438   1.507       .  S
C1435      C1440   1.410       .  A
C1435      C1444   1.396       .  A
C1436      H1452   1.110       .  S
C1436      H1453   1.110       .  S
C1436      H1454   1.111       .  S
C1438      H1449   1.110       .  S
C1438      H1450   1.110       .  S
C1438      H1451   1.107       .  S
C1440      C1441   1.404       .  A
C1440      C1445   1.506       .  S
C1441      C1442   1.405       .  A
C1441      H1446   1.084       .  S
C1442      C1443   1.419       .  A
C1443      C1444   1.399       .  A
C1443      C1447   1.509   1_455  S
C1444      H1448   1.085       .  S
C1445      H1455   1.111       .  S
C1445      H1456   1.110       .  S
C1445      H1457   1.110       .  S
C1447      H1460   1.110       .  S
C1461      C1462   1.402       .  A
C1461      C1466   1.406       .  A
C1461      H1471   1.085       .  S
C1462      C1467   1.490       .  S
C1462      C1463   1.411       .  A
C1463      C1464   1.406       .  A
C1463      C1468   1.507       .  S
C1464      C1465   1.409       .  A
C1464      H1469   1.084       .  S
C1465      C1466   1.420       .  A
C1466      C1470   1.504       .  S
C1467      C1472   1.414       .  A
C1467      C1476   1.396       .  A
C1468      H1484   1.109       .  S
C1468      H1485   1.111       .  S
C1468      H1486   1.111       .  S
C1470      H1481   1.111       .  S
C1470      H1482   1.110       .  S
C1470      H1483   1.098       .  S
C1472      C1473   1.411       .  A
C1472      C1477   1.506       .  S
C1473      C1474   1.406       .  A
C1473      H1478   1.084       .  S
C1474      C1475   1.426       .  A
C1475      C1476   1.401       .  A
C1475      C1479   1.504   1_565  S
C1476      H1480   1.085       .  S
C1477      H1487   1.111       .  S
C1477      H1488   1.110       .  S
C1477      H1489   1.111       .  S
C1479      H1490   1.110   1_545  S
C1479      H1491   1.097       .  S
C1479      H1492   1.110       .  S
C1493      C1494   1.397       .  A
C1493      C1498   1.400       .  A
C1493      H1503   1.085       .  S
C1494      C1499   1.485       .  S
C1494      C1495   1.412       .  A
C1495      C1496   1.408       .  A
C1495      C1500   1.506       .  S
C1496      C1497   1.404       .  A
C1496      H1501   1.084       .  S
C1497      C1498   1.421       .  A
C1498      C1502   1.504       .  S
C1499      C1504   1.409       .  A
C1499      C1508   1.401       .  A
C1500      H1516   1.110       .  S
C1500      H1517   1.111       .  S
C1500      H1518   1.111       .  S
C1502      H1513   1.110       .  S
C1502      H1514   1.110       .  S
C1502      H1515   1.099       .  S
C1504      C1505   1.402       .  A
C1504      C1509   1.507       .  S
C1505      C1506   1.407       .  A
C1505      H1510   1.084       .  S
C1506      C1507   1.422       .  A
C1507      C1508   1.408       .  A
C1507      C1511   1.508   1_565  S
C1508      H1512   1.084       .  S
C1509      H1519   1.111       .  S
C1509      H1520   1.109       .  S
C1509      H1521   1.111       .  S
C1511      H1522   1.107       .  S
C1511      H1523   1.106       .  S
C1525      C1526   1.402       .  A
C1525      C1530   1.405       .  A
C1525      H1535   1.085       .  S
C1526      C1531   1.483       .  S
C1526      C1527   1.409       .  A
C1527      C1528   1.401       .  A
C1527      C1532   1.507       .  S
C1528      C1529   1.408       .  A
C1528      H1533   1.084       .  S
C1529      C1530   1.418       .  A
C1530      C1534   1.505       .  S
C1531      C1536   1.412       .  A
C1531      C1540   1.394       .  A
C1532      H1548   1.109       .  S
C1532      H1549   1.111       .  S
C1532      H1550   1.111       .  S
C1534      H1545   1.110       .  S
C1534      H1546   1.110       .  S
C1534      H1547   1.099       .  S
C1536      C1537   1.409       .  A
C1536      C1541   1.505       .  S
C1537      C1538   1.405       .  A
C1537      H3290   1.084   1_455  S
C1538      C1539   1.426       .  A
C1539      C1540   1.398       .  A
C1539      C1543   1.506       .  S
C1540      H1544   1.085       .  S
C1541      H3299   1.111   1_455  S
C1541      H1552   1.110       .  S
C1541      H1553   1.111       .  S
H1542      C3285   1.084       .  S
C1543      H1554   1.110       .  S
C1543      H1555   1.098       .  S
C1543      H1556   1.110       .  S
H1551      C3289   1.111       .  S
C1557      C1558   1.398       .  A
C1557      C1562   1.398       .  A
C1557      H1567   1.085       .  S
C1558      C1563   1.472       .  S
C1558      C1559   1.407       .  A
C1559      C1560   1.398       .  A
C1559      C1564   1.506       .  S
C1560      C1561   1.404       .  A
C1560      H1565   1.084       .  S
C1561      C1562   1.419       .  A
C1562      C1566   1.505       .  S
C1563      C1568   1.410       .  A
C1563      C1572   1.398       .  A
C1564      H1580   1.110       .  S
C1564      H1581   1.110       .  S
C1564      H1582   1.111       .  S
C1566      H1577   1.111       .  S
C1566      H1578   1.109       .  S
C1566      H1579   1.099       .  S
C1568      C1569   1.399       .  A
C1568      C1573   1.508       .  S
C1569      C1570   1.404       .  A
C1569      H1574   1.084       .  S
C1570      C1571   1.418       .  A
C1571      C1572   1.401       .  A
C1571      C1575   1.508   1_455  S
C1572      H1576   1.084       .  S
C1573      H1583   1.111       .  S
C1573      H1584   1.110       .  S
C1573      H1585   1.110       .  S
C1575      H3334   1.110       .  S
C1575      H3335   1.110       .  S
C1575      H1588   1.111       .  S
H1586      C3323   1.110       .  S
H1587      C3323   1.110       .  S
C1589      C1590   1.395       .  A
C1589      C1594   1.396       .  A
C1589      H1599   1.085       .  S
C1590      C1595   1.474       .  S
C1590      C1591   1.409       .  A
C1591      C1592   1.405       .  A
C1591      C1596   1.505       .  S
C1592      C1593   1.406       .  A
C1592      H1597   1.084       .  S
C1593      C1594   1.420       .  A
C1594      C1598   1.504       .  S
C1595      C1600   1.408       .  A
C1595      C1604   1.400       .  A
C1596      H1612   1.110       .  S
C1596      H1613   1.110       .  S
C1596      H1614   1.111       .  S
C1598      H1609   1.111       .  S
C1598      H1610   1.110       .  S
C1598      H1611   1.096       .  S
C1600      C1601   1.400       .  A
C1600      C1605   1.507       .  S
C1601      C1602   1.405       .  A
C1601      H1606   1.084       .  S
C1602      C1603   1.418       .  A
C1603      C1604   1.403       .  A
C1603      C1607   1.508       .  S
C1604      H1608   1.085       .  S
C1605      H1615   1.111       .  S
C1605      H1616   1.110       .  S
C1605      H1617   1.110       .  S
C1607      H1618   1.111       .  S
C1607      H1619   1.106       .  S
C1621      C1622   1.400       .  A
C1621      C1626   1.403       .  A
C1621      H1631   1.084       .  S
C1622      C1627   1.483       .  S
C1622      C1623   1.412       .  A
C1623      C1624   1.404       .  A
C1623      C1628   1.507       .  S
C1624      C1625   1.406       .  A
C1624      H1629   1.084       .  S
C1625      C1626   1.420       .  A
C1627      C1632   1.412       .  A
C1627      C1636   1.403       .  A
C1628      H1644   1.109       .  S
C1628      H1645   1.110       .  S
C1628      H1646   1.111       .  S
C1630      H1641   1.110       .  S
C1630      H1642   1.111       .  S
C1630      H1643   1.110       .  S
C1632      C1633   1.400       .  A
C1632      C1637   1.507       .  S
C1633      C1634   1.402       .  A
C1633      H1638   1.085       .  S
C1634      C1635   1.414       .  A
C1635      C1636   1.403       .  A
C1635      C1639   1.507       .  S
C1636      H1640   1.084       .  S
C1637      H1647   1.111       .  S
C1637      H1648   1.109       .  S
C1637      H1649   1.110       .  S
C1639      H1650   1.110       .  S
C1639      H1651   1.107       .  S
C1639      H1652   1.111       .  S
C1653      C1654   1.401       .  A
C1653      C1658   1.404       .  A
C1653      H1663   1.085       .  S
C1654      C1659   1.481       .  S
C1654      C1655   1.408       .  A
C1655      C1656   1.400       .  A
C1655      C1660   1.507       .  S
C1656      C1657   1.408       .  A
C1656      H1661   1.084       .  S
C1657      C1658   1.418       .  A
C1658      C1662   1.505       .  S
C1659      C1664   1.412       .  A
C1659      C1668   1.393       .  A
C1660      H1676   1.109       .  S
C1660      H1677   1.110       .  S
C1660      H1678   1.111       .  S
C1662      H1673   1.111       .  S
C1662      H1674   1.110       .  S
C1662      H1675   1.099       .  S
C1664      C1665   1.407       .  A
C1664      C1669   1.505       .  S
C1665      C1666   1.404       .  A
C1665      H1670   1.084       .  S
C1666      C1667   1.426       .  A
C1667      C1668   1.397       .  A
C1667      C1671   1.506   1_455  S
C1668      H1672   1.085       .  S
C1669      H1679   1.111       .  S
C1669      H1680   1.110       .  S
C1669      H1681   1.111       .  S
C1671      H1682   1.110   1_655  S
C1671      H3431   1.098       .  S
C1671      H3432   1.110       .  S
H1683      C3419   1.098       .  S
H1684      C3419   1.110       .  S
C1685      C1686   1.397       .  A
C1685      C1690   1.400       .  A
C1685      H1695   1.085       .  S
C1686      C1691   1.488       .  S
C1686      C1687   1.415       .  A
C1687      C1688   1.410       .  A
C1687      C1692   1.506       .  S
C1688      C1689   1.404       .  A
C1688      H1693   1.084       .  S
C1689      C1690   1.421       .  A
C1690      C1694   1.504       .  S
C1691      C1696   1.410       .  A
C1691      C1700   1.401       .  A
C1692      H1708   1.110       .  S
C1692      H1709   1.111       .  S
C1692      H1710   1.111       .  S
C1694      H1705   1.110       .  S
C1694      H1706   1.110       .  S
C1694      H1707   1.099       .  S
C1696      C1697   1.403       .  A
C1696      C1701   1.507       .  S
C1697      C1698   1.409       .  A
C1697      H1702   1.084       .  S
C1698      C1699   1.422       .  A
C1699      C1700   1.407       .  A
C1700      H1704   1.085       .  S
C1701      H1711   1.111       .  S
C1701      H1712   1.109       .  S
C1701      H1713   1.111       .  S
C1703      H1714   1.110       .  S
C1703      H1715   1.097       .  S
C1703      H1716   1.111       .  S
C1717      C1718   1.396       .  A
C1717      C1722   1.401       .  A
C1717      H1727   1.085       .  S
C1718      C1723   1.491       .  S
C1718      C1719   1.414       .  A
C1719      C1720   1.413       .  A
C1719      C1724   1.505       .  S
C1720      C1721   1.407       .  A
C1720      H3473   1.084   1_455  S
C1721      C1722   1.426       .  A
C1722      C1726   1.502   1_565  S
C1723      C1728   1.411       .  A
C1723      C1732   1.400       .  A
C1724      H1740   1.110       .  S
C1724      H1741   1.111       .  S
C1724      H3490   1.111   1_455  S
H1725      C3468   1.084       .  S
C1726      H1738   1.110   1_545  S
C1728      C1729   1.407       .  A
C1728      C1733   1.506       .  S
C1729      C1730   1.409       .  A
C1729      H1734   1.084       .  S
C1730      C1731   1.422       .  A
C1731      C1732   1.407       .  A
C1731      C1735   1.502       .  S
C1732      H1736   1.085       .  S
C1733      H1743   1.111       .  S
C1733      H1744   1.109       .  S
C1733      H1745   1.111       .  S
C1735      H1746   1.110       .  S
C1735      H1747   1.093       .  S
C1735      H1748   1.111       .  S
H1742      C3472   1.111       .  S
C1749      H1750   1.111       .  S
C1749      C1755   1.554       .  S
C1749      C1754   1.557       .  S
C1749      C1753   1.557       .  S
C1751      H1752   1.112       .  S
C1751      C1757   1.523       .  S
C1751      C1756   1.522       .  S
C1751      C1758   1.527       .  S
C1753      C1756   1.376       .  D
C1753      C2604   1.506       .  S
C1754      C1757   1.375       .  D
C1754      C2563   1.496       .  S
C1755      C1758   1.375       .  D
C1755      C2531   1.495       .  S
C1756      C2508   1.481       .  S
C1757      C2467   1.491       .  S
C1758      C2435   1.486       .  S
C1759      H1760   1.111       .  S
C1759      C1765   1.556       .  S
C1759      C1764   1.557       .  S
C1759      C1763   1.555       .  S
C1761      H1762   1.113       .  S
C1761      C1767   1.516       .  S
C1761      C1766   1.516       .  S
C1761      C1768   1.518       .  S
C1763      C1766   1.373       .  D
C1763      C2339   1.501       .  S
C1764      C1767   1.376       .  D
C1764      C2371   1.494       .  S
C1765      C1768   1.374       .  D
C1765      C2403   1.496       .  S
C1766      C2275   1.473       .  S
C1767      C2307   1.479       .  S
C1768      C2243   1.480       .  S
C1769      H1770   1.110       .  S
C1769      C1774   1.548       .  S
C1769      C2647   1.551   1_545  S
C1771      H1772   1.106       .  S
C1771      C2652   1.551   1_545  S
C1773      C2643   1.551       .  S
C1773      C1776   1.383       .  D
C1773      C2595   1.508       .  S
C1774      C1777   1.374       .  D
C1774      C2540   1.497       .  S
C1775      C1778   1.379       .  D
C1775      C2572   1.504       .  S
C1776      C2380   1.501       .  S
C1777      C2412   1.501       .  S
C1778      C2645   1.551       .  S
C1778      C2348   1.505       .  S
C1779      H1780   1.094       .  S
C1779      C1785   1.545       .  S
C1779      C1784   1.548       .  S
C1779      C1783   1.557       .  S
C1781      H1782   1.112       .  S
C1781      C1787   1.526       .  S
C1781      C1786   1.516       .  S
C1781      C1788   1.516       .  S
C1783      C1786   1.384       .  D
C1783      C2220   1.502       .  S
C1784      C1787   1.381       .  D
C1784      C2188   1.507       .  S
C1785      C1788   1.370       .  D
C1785      C2147   1.490       .  S
C1786      C2060   1.490       .  S
C1787      C2124   1.481       .  S
C1788      C2083   1.476       .  S
C1789      H1790   1.107       .  S
C1789      C1795   1.526       .  S
C1789      C1794   1.533       .  S
C1789      C1793   1.525       .  S
C1791      H1792   1.111       .  S
C1791      C1797   1.551       .  S
C1791      C1796   1.552       .  S
C1791      C1798   1.545       .  S
C1793      C1796   1.380       .  D
C1793      C1868   1.492       .  S
C1794      C1797   1.383       .  D
C1794      C1923   1.488       .  S
C1795      C1798   1.367       .  D
C1795      C1900   1.482       .  S
C1796      C2028   1.496       .  S
C1797      C1987   1.504       .  S
C1798      C1955   1.484       .  S
C1799      H1800   1.110       .  S
C1799      C1805   1.538   1_565  S
C1801      H1802   1.111       .  S
C1801      C1808   1.555       .  S
C1803      C1806   1.377       .  D
C1803      C1996   1.498       .  S
C1804      C1807   1.384       .  D
C1804      C1964   1.515       .  S
C1805      C1808   1.371       .  D
C1805      C2019   1.492       .  S
C1806      C2179   1.498       .  S
C1807      C2156   1.500       .  S
C1808      C2211   1.499       .  S
Zn1809     O1814   2.031       .  S
Zn1809     O2699   2.016   1_556  S
Zn1809     O2687   1.964       .  S
Zn1810     O2691   1.979   1_545  S
Zn1810     O1821   1.988       .  S
Zn1810     O1813   1.928   1_545  S
Zn1811     O1816   2.007   1_556  S
Zn1811     O1819   2.021       .  S
Zn1811     O2696   2.000   1_556  S
Zn1812     O1823   2.018       .  S
Zn1812     O1824   1.988   1_556  S
Zn1812     O1813   1.953   1_545  S
O1813     Zn2683   1.964       .  S
O1814      C1826   1.275       .  A
O1815      C1827   1.268       .  A
O1816      C1828   1.272       .  A
O1817     Zn2684   1.979       .  S
O1817      C1826   1.269       .  A
O1818      C1828   1.273       .  A
O1819      C1827   1.274       .  A
O1820      C1829   1.271       .  A
O1821      C1830   1.269       .  A
O1822     Zn2685   2.000   1_544  S
O1822      C1829   1.271       .  A
O1823      C1830   1.272       .  A
O1824      C1831   1.270       .  A
O1825     Zn2683   2.016   1_544  S
O1825      C1831   1.273       .  A
C1826      C2316   1.477       .  S
C1827      C2284   1.474       .  S
C1828      C1891   1.469       .  S
C1829      C1932   1.467       .  S
C1830      C2252   1.476       .  S
C1831      C1859   1.469       .  S
Zn1832     O2711   2.007   1_545  S
Zn1832     O1841   2.029       .  S
Zn1833     O1838   2.035       .  S
Zn1833     O1840   2.013       .  S
Zn1834     O1845   1.967       .  S
Zn1834     O1836   1.919       .  S
Zn1835     O1843   2.037       .  S
Zn1835     O2720   2.013   1_545  S
Zn1835     O1847   2.003       .  S
Zn1835     O1836   1.959       .  S
O1837     Zn2706   2.007       .  S
O1837      C1849   1.272       .  A
O1838      C1850   1.275       .  A
O1839      C1851   1.265       .  A
O1840      C1849   1.274       .  A
O1841      C1851   1.274       .  A
O1842      C1850   1.267       .  A
O1843      C1852   1.273       .  A
O1844      C1853   1.275       .  A
O1845      C1852   1.269       .  A
O1846     Zn2709   2.013       .  S
O1846      C1853   1.273       .  A
O1847      C1854   1.273       .  A
O1848      C1854   1.271       .  A
C1849      C2476   1.475       .  S
C1850      C2092   1.478       .  S
C1851      C2115   1.473       .  S
C1852      C2051   1.483       .  S
C1853      C2499   1.485       .  S
C1854      C2444   1.474       .  S
C1855      C1856   1.399       .  A
C1855      C1860   1.402       .  A
C1855      H1865   1.084       .  S
C1856      C1861   1.472       .  S
C1856      C1857   1.409       .  A
C1857      C1858   1.398       .  A
C1857      C1862   1.507       .  S
C1858      C1859   1.403       .  A
C1858      H1863   1.084       .  S
C1859      C1860   1.418       .  A
C1860      C1864   1.509   1_545  S
C1861      C1866   1.408       .  A
C1861      C1870   1.394       .  A
C1862      H1878   1.110       .  S
C1862      H1879   1.110       .  S
C1862      H1880   1.111       .  S
C1864      H1875   1.111       .  S
C1864      H1876   1.110       .  S
C1864      H1877   1.106       .  S
C1866      C1867   1.403       .  A
C1866      C1871   1.505       .  S
C1867      C1868   1.406       .  A
C1867      H1872   1.084       .  S
C1868      C1869   1.421       .  A
C1869      C1870   1.397       .  A
C1869      C1873   1.505       .  S
C1870      H1874   1.085       .  S
C1871      H1881   1.110       .  S
C1871      H1882   1.110       .  S
C1871      H1883   1.110       .  S
C1873      H1884   1.111       .  S
C1873      H1885   1.105       .  S
C1873      H1886   1.105       .  S
C1887      C1888   1.398       .  A
C1887      C1892   1.400       .  A
C1887      H1897   1.085       .  S
C1888      C1893   1.474       .  S
C1888      C1889   1.411       .  A
C1889      C1890   1.403       .  A
C1889      C1894   1.507       .  S
C1890      C1891   1.402       .  A
C1890      H1895   1.084       .  S
C1891      C1892   1.417       .  A
C1892      C1896   1.509       .  S
C1893      C1898   1.409       .  A
C1893      C1902   1.400       .  A
C1894      H1910   1.110       .  S
C1894      H1911   1.110       .  S
C1894      H1912   1.111       .  S
C1896      H1907   1.111       .  S
C1896      H1908   1.110       .  S
C1896      H1909   1.107       .  S
C1898      C1899   1.398       .  A
C1898      C1903   1.507       .  S
C1899      C1900   1.401       .  A
C1899      H1904   1.081       .  S
C1900      C1901   1.413       .  A
C1901      C1902   1.402       .  A
C1901      C1905   1.504       .  S
C1902      H1906   1.085       .  S
C1903      H1913   1.111       .  S
C1903      H1914   1.110       .  S
C1903      H1915   1.110       .  S
C1905      H1916   1.110       .  S
C1905      H1917   1.104       .  S
C1905      H1918   1.110       .  S
C1919      C1920   1.394       .  A
C1919      C1924   1.398       .  A
C1919      H1929   1.085       .  S
C1920      C1925   1.467       .  S
C1920      C1921   1.407       .  A
C1921      C1922   1.398       .  A
C1921      C1926   1.506       .  S
C1922      C1923   1.406       .  A
C1922      H1927   1.084       .  S
C1923      C1924   1.420       .  A
C1924      C1928   1.506       .  S
C1925      C1930   1.408       .  A
C1925      C1934   1.396       .  A
C1926      H1942   1.110       .  S
C1926      H1943   1.110       .  S
C1926      H1944   1.111       .  S
C1928      H1939   1.111       .  S
C1928      H1940   1.105       .  S
C1928      H1941   1.104       .  S
C1930      C1931   1.400       .  A
C1930      C1935   1.507       .  S
C1931      C1932   1.404       .  A
C1931      H1936   1.084       .  S
C1932      C1933   1.419       .  A
C1933      C1934   1.397       .  A
C1934      H1938   1.085       .  S
C1935      H2819   1.111       .  S
C1935      H1946   1.110       .  S
C1935      H1947   1.110       .  S
C1937      H1948   1.110       .  S
C1937      H1949   1.105       .  S
C1937      H1950   1.111       .  S
H1945      C2809   1.111       .  S
C1951      C1952   1.406       .  A
C1951      C1956   1.407       .  A
C1951      H1961   1.083       .  S
C1952      C1957   1.494       .  S
C1952      C1953   1.418       .  A
C1953      C1954   1.403       .  A
C1953      C1958   1.509       .  S
C1954      C1955   1.400       .  A
C1954      H1959   1.084       .  S
C1955      C1956   1.414       .  A
C1956      C1960   1.506       .  S
C1957      C1962   1.416       .  A
C1957      C1966   1.394       .  A
C1958      H1974   1.107       .  S
C1958      H1975   1.111       .  S
C1958      H1976   1.111       .  S
C1960      H1971   1.107       .  S
C1960      H1972   1.110       .  S
C1960      H1973   1.110       .  S
C1962      C1963   1.415       .  A
C1962      C1967   1.506       .  S
C1963      C1964   1.409       .  A
C1963      H1968   1.082       .  S
C1964      C1965   1.427       .  A
C1965      C1966   1.396       .  A
C1965      C1969   1.500       .  S
C1966      H1970   1.085       .  S
C1967      H1977   1.111       .  S
C1967      H1978   1.108       .  S
C1967      H1979   1.111       .  S
C1969      H1980   1.110       .  S
C1969      H1981   1.087   1_655  S
C1969      H1982   1.111   1_655  S
C1983      C1984   1.403       .  A
C1983      C1988   1.404       .  A
C1983      H1993   1.085       .  S
C1984      C1989   1.495       .  S
C1984      C1985   1.417       .  A
C1985      C1986   1.411       .  A
C1985      C1990   1.509       .  S
C1986      C1987   1.406       .  A
C1986      H1991   1.084       .  S
C1987      C1988   1.419       .  A
C1988      C1992   1.505       .  S
C1989      C1994   1.417       .  A
C1989      C1998   1.400       .  A
C1990      H2006   1.110       .  S
C1990      H2007   1.105       .  S
C1990      H2008   1.111       .  S
C1992      H2003   1.110       .  S
C1992      H2004   1.110       .  S
C1992      H2005   1.106       .  S
C1994      C1995   1.413       .  A
C1994      C1999   1.508       .  S
C1995      C1996   1.405       .  A
C1995      H2874   1.082   1_545  S
C1996      C1997   1.417       .  A
C1997      C1998   1.401       .  A
C1998      H2002   1.085       .  S
C1999      H2883   1.111   1_545  S
C1999      H2010   1.110       .  S
C1999      H2011   1.105       .  S
H2000      C2869   1.082       .  S
C2001      H2012   1.106       .  S
C2001      H2013   1.110       .  S
H2009      C2873   1.111       .  S
C2015      C2016   1.399       .  A
C2015      C2020   1.398       .  A
C2015      H2025   1.085       .  S
C2016      C2021   1.489       .  S
C2016      C2017   1.417       .  A
C2017      C2018   1.410       .  A
C2017      C2022   1.507       .  S
C2018      C2019   1.404       .  A
C2018      H2023   1.082       .  S
C2019      C2020   1.413       .  A
C2020      C2024   1.499   1_545  S
C2021      C2026   1.416       .  A
C2021      C2030   1.402       .  A
C2022      H2038   1.109       .  S
C2022      H2039   1.105       .  S
C2022      H2040   1.111       .  S
C2024      H2035   1.107       .  S
C2024      H2036   1.110       .  S
C2024      H2037   1.100       .  S
C2026      C2027   1.410       .  A
C2026      C2031   1.508       .  S
C2027      C2028   1.405       .  A
C2027      H2032   1.082       .  S
C2028      C2029   1.415       .  A
C2029      C2030   1.399       .  A
C2029      C2033   1.504       .  S
C2030      H2034   1.084       .  S
C2031      H2041   1.111       .  S
C2031      H2042   1.110       .  S
C2031      H2043   1.105       .  S
C2033      H2044   1.110       .  S
C2033      H2045   1.107       .  S
C2033      H2046   1.110       .  S
C2047      C2048   1.403       .  A
C2047      C2052   1.409       .  A
C2047      H2057   1.084       .  S
C2048      C2053   1.479       .  S
C2048      C2049   1.408       .  A
C2049      C2050   1.394       .  A
C2049      C2054   1.504       .  S
C2050      C2051   1.405       .  A
C2050      H2055   1.084       .  S
C2051      C2052   1.418       .  A
C2052      C2056   1.506       .  S
C2053      C2058   1.411       .  A
C2053      C2062   1.396       .  A
C2054      H2070   1.109       .  S
C2054      H2071   1.109       .  S
C2054      H2946   1.111       .  S
C2056      H2067   1.111       .  S
C2056      H2068   1.110       .  S
C2056      H2069   1.110       .  S
C2058      C2059   1.407       .  A
C2058      C2063   1.504       .  S
C2059      C2060   1.404       .  A
C2059      H2064   1.084       .  S
C2060      C2061   1.417       .  A
C2061      C2062   1.398       .  A
C2061      C2065   1.503       .  S
C2062      H2066   1.085       .  S
C2063      H2073   1.111       .  S
C2063      H2074   1.110       .  S
C2063      H2075   1.110       .  S
C2065      H2076   1.105       .  S
C2065      H2077   1.107       .  S
C2065      H2078   1.111       .  S
H2072      C2928   1.111       .  S
C2079      C2080   1.400       .  A
C2079      C2084   1.399       .  A
C2079      H2089   1.084       .  S
C2080      C2085   1.473       .  S
C2080      C2081   1.409       .  A
C2081      C2082   1.400       .  A
C2081      C2086   1.506       .  S
C2082      C2083   1.402       .  A
C2082      H2087   1.084       .  S
C2083      C2084   1.413       .  A
C2084      C2088   1.505       .  S
C2085      C2090   1.410       .  A
C2085      C2094   1.397       .  A
C2086      H2102   1.110       .  S
C2086      H2103   1.110       .  S
C2086      H2104   1.111       .  S
C2088      H2099   1.111       .  S
C2088      H2100   1.110       .  S
C2088      H2101   1.105       .  S
C2090      C2091   1.402       .  A
C2090      C2095   1.506       .  S
C2091      C2092   1.404       .  A
C2091      H2096   1.084       .  S
C2092      C2093   1.421       .  A
C2093      C2094   1.400       .  A
C2093      C2097   1.510       .  S
C2094      H2098   1.085       .  S
C2095      H2105   1.111       .  S
C2095      H2106   1.110       .  S
C2095      H2107   1.110       .  S
C2097      H2108   1.109       .  S
C2097      H2109   1.110       .  S
C2097      H2110   1.111       .  S
C2111      C2112   1.396       .  A
C2111      C2116   1.399       .  A
C2111      H2121   1.085       .  S
C2112      C2117   1.470       .  S
C2112      C2113   1.410       .  A
C2113      C2114   1.401       .  A
C2113      C2118   1.507       .  S
C2114      C2115   1.403       .  A
C2114      H2119   1.084       .  S
C2115      C2116   1.419       .  A
C2116      C2120   1.510   1_655  S
C2117      C2122   1.407       .  A
C2117      C2126   1.400       .  A
C2118      H2134   1.110       .  S
C2118      H2135   1.110       .  S
C2118      H2136   1.111       .  S
C2120      H2131   1.110       .  S
C2120      H2132   1.111       .  S
C2120      H2133   1.109       .  S
C2122      C2123   1.395       .  A
C2122      C2127   1.507       .  S
C2123      C2124   1.403       .  A
C2123      H2128   1.084       .  S
C2124      C2125   1.418       .  A
C2125      C2126   1.401       .  A
C2125      C2129   1.507       .  S
C2126      H2130   1.085       .  S
C2127      H2137   1.111       .  S
C2127      H2138   1.110       .  S
C2127      H2139   1.110       .  S
C2129      H2140   1.110       .  S
C2129      H2141   1.105       .  S
C2129      H2142   1.110       .  S
C2143      C2144   1.404       .  A
C2143      C2148   1.406       .  A
C2143      H2153   1.084       .  S
C2144      C2149   1.483       .  S
C2144      C2145   1.409       .  A
C2145      C2146   1.403       .  A
C2145      C2150   1.506       .  S
C2146      C2147   1.406       .  A
C2146      H2151   1.084       .  S
C2147      C2148   1.414       .  A
C2148      C2152   1.508       .  S
C2149      C2154   1.411       .  A
C2149      C2158   1.400       .  A
C2150      H2166   1.110       .  S
C2150      H2167   1.110       .  S
C2150      H2168   1.111       .  S
C2152      H2163   1.111       .  S
C2152      H2164   1.108       .  S
C2152      H2165   1.108       .  S
C2154      C2155   1.406       .  A
C2154      C2159   1.506       .  S
C2155      C2156   1.405       .  A
C2156      C2157   1.419       .  A
C2157      C2158   1.403       .  A
C2157      C2161   1.507       .  S
C2158      H2162   1.084       .  S
C2159      H2170   1.110       .  S
C2159      H2171   1.110       .  S
C2161      H2172   1.110       .  S
C2161      H2173   1.108       .  S
C2161      H2174   1.110       .  S
C2175      C2176   1.405       .  A
C2175      C2180   1.398       .  A
C2175      H2185   1.083       .  S
C2176      C2181   1.507       .  S
C2176      C2177   1.425       .  A
C2177      C2178   1.409       .  A
C2177      C2182   1.508       .  S
C2178      C2179   1.403       .  A
C2178      H3057   1.084       .  S
C2179      C2180   1.413       .  A
C2181      C2186   1.422       .  A
C2181      C2190   1.409       .  A
C2182      H2198   1.110       .  S
C2182      H2199   1.106       .  S
C2182      H3074   1.111   1_545  S
H2183      C3052   1.084       .  S
C2184      H2195   1.108       .  S
C2184      H2196   1.111       .  S
C2184      H2197   1.094       .  S
C2186      C2187   1.399       .  A
C2186      C2191   1.511       .  S
C2187      C2188   1.404       .  A
C2187      H2192   1.083       .  S
C2188      C2189   1.419       .  A
C2189      C2190   1.410       .  A
C2189      C2193   1.506       .  S
C2190      H2194   1.082       .  S
C2191      H2201   1.111       .  S
C2191      H2202   1.110       .  S
C2191      H2203   1.107       .  S
C2193      H2204   1.107       .  S
C2193      H2205   1.110       .  S
C2193      H2206   1.111       .  S
H2200      C3056   1.111       .  S
C2207      C2208   1.407       .  A
C2207      C2212   1.399       .  A
C2207      H2217   1.082       .  S
C2208      C2213   1.507       .  S
C2208      C2209   1.422       .  A
C2209      C2210   1.405       .  A
C2209      C2214   1.508       .  S
C2210      C2211   1.404       .  A
C2210      H2215   1.083       .  S
C2211      C2212   1.413       .  A
C2212      C3090   1.498   1_545  S
C2213      C2218   1.419       .  A
C2213      C2222   1.410       .  A
C2214      H2230   1.110       .  S
C2214      H2231   1.107       .  S
C2214      H2232   1.111       .  S
C2216      H2227   1.111       .  S
C2216      H2228   1.108       .  S
C2216      H2229   1.090       .  S
C2216      C3086   1.498       .  S
C2218      C2219   1.397       .  A
C2218      C2223   1.506       .  S
C2219      C2220   1.402       .  A
C2219      H2224   1.082       .  S
C2220      C2221   1.418       .  A
C2221      C2222   1.409       .  A
C2221      C2225   1.506       .  S
C2222      H2226   1.081       .  S
C2223      H2233   1.106       .  S
C2223      H2234   1.110       .  S
C2223      H2235   1.108       .  S
C2225      H2236   1.106       .  S
C2225      H2237   1.109       .  S
C2225      H2238   1.111       .  S
C2239      C2240   1.399       .  A
C2239      C2244   1.398       .  A
C2239      H2249   1.085       .  S
C2240      C2245   1.472       .  S
C2240      C2241   1.408       .  A
C2241      C2242   1.399       .  A
C2241      C2246   1.506       .  S
C2242      C2243   1.403       .  A
C2242      H2247   1.084       .  S
C2243      C2244   1.415       .  A
C2244      C2248   1.504       .  S
C2245      C2250   1.410       .  A
C2245      C2254   1.397       .  A
C2246      H2262   1.110       .  S
C2246      H2263   1.110       .  S
C2246      H2264   1.111       .  S
C2248      H2259   1.110       .  S
C2248      H2260   1.111       .  S
C2248      H2261   1.099       .  S
C2250      C2251   1.402       .  A
C2250      C2255   1.507       .  S
C2251      C2252   1.405       .  A
C2251      H2256   1.084       .  S
C2252      C2253   1.419       .  A
C2253      C2254   1.399       .  A
C2253      C2257   1.509       .  S
C2254      H2258   1.085       .  S
C2255      H2266   1.110       .  S
C2255      H2267   1.110       .  S
C2257      H2268   1.110       .  S
C2257      H2269   1.107       .  S
C2257      H2270   1.111       .  S
C2271      C2272   1.401       .  A
C2271      C2276   1.400       .  A
C2271      H2281   1.084       .  S
C2272      C2277   1.470       .  S
C2272      C2273   1.407       .  A
C2273      C2274   1.396       .  A
C2273      C2278   1.507       .  S
C2274      C2275   1.402       .  A
C2274      H2279   1.083       .  S
C2275      C2276   1.412       .  A
C2276      C2280   1.507       .  S
C2277      C2282   1.409       .  A
C2277      C2286   1.397       .  A
C2278      H2294   1.110       .  S
C2278      H2295   1.110       .  S
C2278      H2296   1.111       .  S
C2280      H2291   1.110       .  S
C2280      H2292   1.110       .  S
C2280      H2293   1.107       .  S
C2282      C2283   1.400       .  A
C2282      C2287   1.507       .  S
C2283      C2284   1.404       .  A
C2283      H2288   1.084       .  S
C2284      C2285   1.419       .  A
C2285      C2286   1.400       .  A
C2285      C2289   1.509       .  S
C2286      H2290   1.084       .  S
C2287      H2297   1.111       .  S
C2287      H2298   1.110       .  S
C2287      H2299   1.110       .  S
C2289      H2300   1.109       .  S
C2289      H3175   1.110       .  S
C2289      H3176   1.111       .  S
H2301      C3163   1.110       .  S
H2302      C3163   1.111       .  S
C2303      C2304   1.401       .  A
C2303      C2308   1.401       .  A
C2303      H2313   1.084       .  S
C2304      C2309   1.473       .  S
C2304      C2305   1.407       .  A
C2305      C2306   1.398       .  A
C2305      C2310   1.507       .  S
C2306      C2307   1.405       .  A
C2306      H2311   1.085       .  S
C2307      C2308   1.414       .  A
C2308      C2312   1.507       .  S
C2309      C2314   1.410       .  A
C2309      C2318   1.396       .  A
C2310      H2326   1.110       .  S
C2310      H2327   1.110       .  S
C2310      H2328   1.111       .  S
C2312      H2323   1.110       .  S
C2312      H2324   1.110       .  S
C2312      H2325   1.107       .  S
C2314      C2315   1.404       .  A
C2314      C2319   1.506       .  S
C2315      C2316   1.405       .  A
C2315      H2320   1.084       .  S
C2316      C2317   1.419       .  A
C2317      C2318   1.399       .  A
C2317      C2321   1.509       .  S
C2318      H2322   1.085       .  S
C2319      H2329   1.111       .  S
C2319      H2330   1.110       .  S
C2319      H2331   1.110       .  S
C2321      H3206   1.111       .  S
C2321      H3207   1.109       .  S
C2321      H2334   1.110       .  S
H2332      C3195   1.111       .  S
H2333      C3195   1.109       .  S
C2335      C2336   1.402       .  A
C2335      C2340   1.406       .  A
C2335      H2345   1.085       .  S
C2336      C2341   1.490       .  S
C2336      C2337   1.411       .  A
C2337      C2338   1.406       .  A
C2337      C2342   1.507       .  S
C2338      C2339   1.409       .  A
C2338      H2343   1.084       .  S
C2339      C2340   1.420       .  A
C2340      C2344   1.504       .  S
C2341      C2346   1.414       .  A
C2341      C2350   1.396       .  A
C2342      H2358   1.109       .  S
C2342      H2359   1.111       .  S
C2342      H2360   1.111       .  S
C2344      H2355   1.111       .  S
C2344      H2356   1.110       .  S
C2344      H2357   1.098       .  S
C2346      C2347   1.411       .  A
C2346      C2351   1.506       .  S
C2347      C2348   1.406       .  A
C2347      H2352   1.084       .  S
C2348      C2349   1.426       .  A
C2349      C2350   1.401       .  A
C2349      C2353   1.504       .  S
C2350      H2354   1.085       .  S
C2351      H2361   1.111       .  S
C2351      H2362   1.110       .  S
C2351      H2363   1.111       .  S
C2353      H2364   1.110       .  S
C2353      H2365   1.097       .  S
C2353      H2366   1.110       .  S
C2367      C2368   1.397       .  A
C2367      C2372   1.400       .  A
C2367      H2377   1.085       .  S
C2368      C2373   1.485       .  S
C2368      C2369   1.412       .  A
C2369      C2370   1.408       .  A
C2369      C2374   1.506       .  S
C2370      C2371   1.404       .  A
C2370      H2375   1.084       .  S
C2371      C2372   1.421       .  A
C2372      C2376   1.504       .  S
C2373      C2378   1.409       .  A
C2373      C2382   1.401       .  A
C2374      H2390   1.110       .  S
C2374      H2391   1.111       .  S
C2374      H2392   1.111       .  S
C2376      H2387   1.110       .  S
C2376      H2388   1.110       .  S
C2376      H2389   1.099       .  S
C2378      C2379   1.402       .  A
C2378      C2383   1.507       .  S
C2379      C2380   1.407       .  A
C2379      H2384   1.084       .  S
C2380      C2381   1.422       .  A
C2381      C2382   1.408       .  A
C2381      C2385   1.508       .  S
C2382      H2386   1.084       .  S
C2383      H2393   1.111       .  S
C2383      H2394   1.109       .  S
C2383      H2395   1.111       .  S
C2385      H2396   1.107       .  S
C2385      H2397   1.106       .  S
C2385      H3272   1.111       .  S
H2398      C3259   1.111       .  S
C2399      C2400   1.402       .  A
C2399      C2404   1.405       .  A
C2399      H2409   1.085       .  S
C2400      C2405   1.483       .  S
C2400      C2401   1.409       .  A
C2401      C2402   1.401       .  A
C2401      C2406   1.507       .  S
C2402      C2403   1.408       .  A
C2402      H2407   1.084       .  S
C2403      C2404   1.418       .  A
C2404      C2408   1.505       .  S
C2405      C2410   1.412       .  A
C2405      C2414   1.394       .  A
C2406      H2422   1.109       .  S
C2406      H2423   1.111       .  S
C2406      H2424   1.111       .  S
C2408      H2419   1.110       .  S
C2408      H2420   1.110       .  S
C2408      H2421   1.099       .  S
C2410      C2411   1.409       .  A
C2410      C2415   1.505       .  S
C2411      C2412   1.405       .  A
C2412      C2413   1.426       .  A
C2413      C2414   1.398       .  A
C2413      C2417   1.506       .  S
C2414      H2418   1.085       .  S
C2415      H2426   1.110       .  S
C2415      H2427   1.111       .  S
C2417      H2428   1.110       .  S
C2417      H2429   1.098       .  S
C2417      H2430   1.110       .  S
C2431      C2432   1.398       .  A
C2431      C2436   1.398       .  A
C2431      H2441   1.085       .  S
C2432      C2437   1.472       .  S
C2432      C2433   1.407       .  A
C2433      C2434   1.398       .  A
C2433      C2438   1.506       .  S
C2434      C2435   1.404       .  A
C2434      H2439   1.084       .  S
C2435      C2436   1.419       .  A
C2436      C2440   1.505       .  S
C2437      C2442   1.410       .  A
C2437      C2446   1.398       .  A
C2438      H2454   1.110       .  S
C2438      H2455   1.110       .  S
C2438      H2456   1.111       .  S
C2440      H2451   1.111       .  S
C2440      H2452   1.109       .  S
C2440      H2453   1.099       .  S
C2442      C2443   1.399       .  A
C2442      C2447   1.508       .  S
C2443      C2444   1.404       .  A
C2443      H2448   1.084       .  S
C2444      C2445   1.418       .  A
C2445      C2446   1.401       .  A
C2445      C2449   1.508       .  S
C2446      H2450   1.084       .  S
C2447      H2457   1.111       .  S
C2447      H2458   1.110       .  S
C2447      H2459   1.110       .  S
C2449      H2462   1.111       .  S
C2463      C2464   1.395       .  A
C2463      C2468   1.396       .  A
C2463      H2473   1.085       .  S
C2464      C2469   1.474       .  S
C2464      C2465   1.409       .  A
C2465      C2466   1.405       .  A
C2465      C2470   1.505       .  S
C2466      C2467   1.406       .  A
C2466      H2471   1.084       .  S
C2467      C2468   1.420       .  A
C2468      C2472   1.504       .  S
C2469      C2474   1.408       .  A
C2469      C2478   1.400       .  A
C2470      H2486   1.110       .  S
C2470      H2487   1.110       .  S
C2470      H2488   1.111       .  S
C2472      H2483   1.111       .  S
C2472      H2484   1.110       .  S
C2472      H2485   1.096       .  S
C2474      C2475   1.400       .  A
C2474      C2479   1.507       .  S
C2475      C2476   1.405       .  A
C2475      H2480   1.084       .  S
C2476      C2477   1.418       .  A
C2477      C2478   1.403       .  A
C2477      C2481   1.508       .  S
C2478      H2482   1.085       .  S
C2479      H2489   1.111       .  S
C2479      H2490   1.110       .  S
C2479      H2491   1.110       .  S
C2481      H2492   1.111       .  S
C2481      H2493   1.106       .  S
C2481      H3368   1.110       .  S
H2494      C3355   1.110       .  S
C2495      C2496   1.400       .  A
C2495      C2500   1.403       .  A
C2495      H2505   1.084       .  S
C2496      C2501   1.483       .  S
C2496      C2497   1.412       .  A
C2497      C2498   1.404       .  A
C2497      C2502   1.507       .  S
C2498      C2499   1.406       .  A
C2498      H2503   1.084       .  S
C2499      C2500   1.420       .  A
C2500      C3378   1.509       .  S
C2501      C2506   1.412       .  A
C2501      C2510   1.403       .  A
C2502      H2518   1.109       .  S
C2502      H2519   1.110       .  S
C2502      H2520   1.111       .  S
C2504      H2515   1.110       .  S
C2504      H2516   1.111       .  S
C2504      H2517   1.110       .  S
C2504      C3374   1.509   1_545  S
C2506      C2507   1.400       .  A
C2506      C2511   1.507       .  S
C2507      C2508   1.402       .  A
C2507      H2512   1.085       .  S
C2508      C2509   1.414       .  A
C2509      C2510   1.403       .  A
C2509      C2513   1.507       .  S
C2510      H2514   1.084       .  S
C2511      H2521   1.111       .  S
C2511      H2522   1.109       .  S
C2511      H2523   1.110       .  S
C2513      H2524   1.110       .  S
C2513      H2525   1.107       .  S
C2513      H2526   1.111       .  S
C2527      C2528   1.401       .  A
C2527      C2532   1.404       .  A
C2527      H2537   1.085       .  S
C2528      C2533   1.481       .  S
C2528      C2529   1.408       .  A
C2529      C2530   1.400       .  A
C2529      C2534   1.507       .  S
C2530      C2531   1.408       .  A
C2530      H2535   1.084       .  S
C2531      C2532   1.418       .  A
C2532      C2536   1.505       .  S
C2533      C2538   1.412       .  A
C2533      C2542   1.393       .  A
C2534      H2550   1.109       .  S
C2534      H2551   1.110       .  S
C2534      H2552   1.111       .  S
C2536      H2547   1.111       .  S
C2536      H2548   1.110       .  S
C2536      H2549   1.099       .  S
C2538      C2539   1.407       .  A
C2538      C2543   1.505       .  S
C2539      C2540   1.404       .  A
C2539      H2544   1.084       .  S
C2540      C2541   1.426       .  A
C2541      C2542   1.397       .  A
C2541      C2545   1.506       .  S
C2542      H2546   1.085       .  S
C2543      H2553   1.111       .  S
C2543      H2554   1.110       .  S
C2543      H2555   1.111       .  S
C2545      H2556   1.110       .  S
C2559      C2560   1.397       .  A
C2559      C2564   1.400       .  A
C2559      H2569   1.085       .  S
C2560      C2565   1.488       .  S
C2560      C2561   1.415       .  A
C2561      C2562   1.410       .  A
C2561      C2566   1.506       .  S
C2562      C2563   1.404       .  A
C2562      H2567   1.084       .  S
C2563      C2564   1.421       .  A
C2564      C2568   1.504       .  S
C2565      C2570   1.410       .  A
C2565      C2574   1.401       .  A
C2566      H2582   1.110       .  S
C2566      H2583   1.111       .  S
C2566      H2584   1.111       .  S
C2568      H2579   1.110       .  S
C2568      H2580   1.110       .  S
C2568      H2581   1.099       .  S
C2570      C2571   1.403       .  A
C2570      C2575   1.507       .  S
C2571      C2572   1.409       .  A
C2571      H2576   1.084       .  S
C2572      C2573   1.422       .  A
C2573      C2574   1.407       .  A
C2573      C3451   1.505       .  S
C2574      H2578   1.085       .  S
C2575      H2585   1.111       .  S
C2575      H2586   1.109       .  S
C2575      H2587   1.111       .  S
C2577      H2588   1.110       .  S
C2577      H2589   1.097       .  S
C2577      H2590   1.111       .  S
C2577      C3447   1.505   1_545  S
C2591      C2592   1.396       .  A
C2591      C2596   1.401       .  A
C2591      H2601   1.085       .  S
C2592      C2597   1.491       .  S
C2592      C2593   1.414       .  A
C2593      C2594   1.413       .  A
C2593      C2598   1.505       .  S
C2594      C2595   1.407       .  A
C2595      C2596   1.426       .  A
C2596      C2600   1.502       .  S
C2597      C2602   1.411       .  A
C2597      C2606   1.400       .  A
C2598      H2614   1.110       .  S
C2598      H2615   1.111       .  S
C2600      H3485   1.110       .  S
C2600      H2612   1.110       .  S
C2600      H3487   1.094       .  S
C2602      C2603   1.407       .  A
C2602      C2607   1.506       .  S
C2603      C2604   1.409       .  A
C2603      H2608   1.084       .  S
C2604      C2605   1.422       .  A
C2605      C2606   1.407       .  A
C2605      C2609   1.502       .  S
C2606      H2610   1.085       .  S
C2607      H2617   1.111       .  S
C2607      H2618   1.109       .  S
C2607      H2619   1.111       .  S
C2609      H2620   1.110       .  S
C2609      H2621   1.093       .  S
C2609      H2622   1.111       .  S
H2611      C3474   1.110       .  S
H2613      C3474   1.094       .  S
C2623      H2624   1.111       .  S
C2623      C2629   1.554       .  S
C2623      C2628   1.557       .  S
C2623      C2627   1.557       .  S
C2625      H2626   1.112       .  S
C2625      C2631   1.523       .  S
C2625      C2630   1.522       .  S
C2625      C2632   1.527       .  S
C2627      C2630   1.376       .  D
C2627      C3478   1.506       .  S
C2628      C2631   1.375       .  D
C2628      C3437   1.496       .  S
C2629      C2632   1.375       .  D
C2629      C3405   1.495       .  S
C2630      C3382   1.481       .  S
C2631      C3341   1.491       .  S
C2632      C3309   1.486       .  S
C2633      H2634   1.111       .  S
C2633      C2639   1.556       .  S
C2633      C2638   1.557       .  S
C2633      C2637   1.555       .  S
C2635      H2636   1.113       .  S
C2635      C2641   1.516       .  S
C2635      C2640   1.516       .  S
C2635      C2642   1.518       .  S
C2637      C2640   1.373       .  D
C2637      C3213   1.501       .  S
C2638      C2641   1.376       .  D
C2638      C3245   1.494       .  S
C2639      C2642   1.374       .  D
C2639      C3277   1.496       .  S
C2640      C3149   1.473       .  S
C2641      C3181   1.479       .  S
C2642      C3117   1.480       .  S
C2643      H2644   1.110       .  S
C2643      C2648   1.548       .  S
C2645      H2646   1.106       .  S
C2647      C2650   1.383       .  D
C2647      C3469   1.508       .  S
C2648      C2651   1.374       .  D
C2648      C3414   1.497       .  S
C2649      C2652   1.379       .  D
C2649      C3446   1.504       .  S
C2650      C3254   1.501       .  S
C2651      C3286   1.501       .  S
C2652      C3222   1.505       .  S
C2653      H2654   1.094       .  S
C2653      C2659   1.545       .  S
C2653      C2658   1.548       .  S
C2653      C2657   1.557       .  S
C2655      H2656   1.112       .  S
C2655      C2661   1.526       .  S
C2655      C2660   1.516       .  S
C2655      C2662   1.516       .  S
C2657      C2660   1.384       .  D
C2657      C3094   1.502       .  S
C2658      C2661   1.381       .  D
C2658      C3062   1.507       .  S
C2659      C2662   1.370       .  D
C2659      C3021   1.490       .  S
C2660      C2934   1.490       .  S
C2661      C2998   1.481       .  S
C2662      C2957   1.476       .  S
C2663      H2664   1.107       .  S
C2663      C2669   1.526       .  S
C2663      C2668   1.533       .  S
C2663      C2667   1.525       .  S
C2665      H2666   1.111       .  S
C2665      C2671   1.551       .  S
C2665      C2670   1.552       .  S
C2665      C2672   1.545       .  S
C2667      C2670   1.380       .  D
C2667      C2742   1.492       .  S
C2668      C2671   1.383       .  D
C2668      C2797   1.488       .  S
C2669      C2672   1.367       .  D
C2669      C2774   1.482       .  S
C2670      C2902   1.496       .  S
C2671      C2861   1.504       .  S
C2672      C2829   1.484       .  S
C2673      H2674   1.110       .  S
C2673      C2679   1.538       .  S
C2675      H2676   1.111       .  S
C2675      C2682   1.555       .  S
C2677      C2680   1.377       .  D
C2677      C2870   1.498       .  S
C2678      C2681   1.384       .  D
C2678      C2838   1.515       .  S
C2679      C2682   1.371       .  D
C2679      C2893   1.492       .  S
C2680      C3053   1.498       .  S
C2681      C3030   1.500       .  S
C2682      C3085   1.499       .  S
Zn2683     O2688   2.031       .  S
Zn2684     O2695   1.988       .  S
Zn2684     O2687   1.928       .  S
Zn2685     O2690   2.007   1_556  S
Zn2685     O2693   2.021       .  S
Zn2686     O2697   2.018       .  S
Zn2686     O2698   1.988   1_556  S
Zn2686     O2687   1.953       .  S
O2688      C2700   1.275       .  A
O2689      C2701   1.268       .  A
O2690      C2702   1.272       .  A
O2691      C2700   1.269       .  A
O2692      C2702   1.273       .  A
O2693      C2701   1.274       .  A
O2694      C2703   1.271       .  A
O2695      C2704   1.269       .  A
O2696      C2703   1.271       .  A
O2697      C2704   1.272       .  A
O2698      C2705   1.270       .  A
O2699      C2705   1.273       .  A
C2700      C3190   1.477       .  S
C2701      C3158   1.474       .  S
C2702      C2765   1.469       .  S
C2703      C2806   1.467       .  S
C2704      C3126   1.476       .  S
C2705      C2733   1.469       .  S
Zn2706     O2715   2.029       .  S
Zn2707     O2712   2.035       .  S
Zn2707     O2714   2.013       .  S
Zn2708     O2719   1.967       .  S
Zn2708     O2710   1.919       .  S
Zn2709     O2717   2.037       .  S
Zn2709     O2721   2.003       .  S
Zn2709     O2710   1.959       .  S
O2711      C2723   1.272       .  A
O2712      C2724   1.275       .  A
O2713      C2725   1.265       .  A
O2714      C2723   1.274       .  A
O2715      C2725   1.274       .  A
O2716      C2724   1.267       .  A
O2717      C2726   1.273       .  A
O2718      C2727   1.275       .  A
O2719      C2726   1.269       .  A
O2720      C2727   1.273       .  A
O2721      C2728   1.273       .  A
O2722      C2728   1.271       .  A
C2723      C3350   1.475       .  S
C2724      C2966   1.478       .  S
C2725      C2989   1.473       .  S
C2726      C2925   1.483       .  S
C2727      C3373   1.485       .  S
C2728      C3318   1.474       .  S
C2729      C2730   1.399       .  A
C2729      C2734   1.402       .  A
C2729      H2739   1.084       .  S
C2730      C2735   1.472       .  S
C2730      C2731   1.409       .  A
C2731      C2732   1.398       .  A
C2731      C2736   1.507       .  S
C2732      C2733   1.403       .  A
C2732      H2737   1.084       .  S
C2733      C2734   1.418       .  A
C2734      C2738   1.509       .  S
C2735      C2740   1.408       .  A
C2735      C2744   1.394       .  A
C2736      H2752   1.110       .  S
C2736      H2753   1.110       .  S
C2736      H2754   1.111       .  S
C2738      H2749   1.111       .  S
C2738      H2750   1.110       .  S
C2738      H2751   1.106       .  S
C2740      C2741   1.403       .  A
C2740      C2745   1.505       .  S
C2741      C2742   1.406       .  A
C2741      H2746   1.084       .  S
C2742      C2743   1.421       .  A
C2743      C2744   1.397       .  A
C2743      C2747   1.505       .  S
C2744      H2748   1.085       .  S
C2745      H2755   1.110       .  S
C2745      H2756   1.110       .  S
C2745      H2757   1.110       .  S
C2747      H2758   1.111       .  S
C2747      H2759   1.105       .  S
C2747      H2760   1.105       .  S
C2761      C2762   1.398       .  A
C2761      C2766   1.400       .  A
C2761      H2771   1.085       .  S
C2762      C2767   1.474       .  S
C2762      C2763   1.411       .  A
C2763      C2764   1.403       .  A
C2763      C2768   1.507       .  S
C2764      C2765   1.402       .  A
C2764      H2769   1.084       .  S
C2765      C2766   1.417       .  A
C2766      C2770   1.509       .  S
C2767      C2772   1.409       .  A
C2767      C2776   1.400       .  A
C2768      H2784   1.110       .  S
C2768      H2785   1.110       .  S
C2768      H2786   1.111       .  S
C2770      H2781   1.111       .  S
C2770      H2782   1.110       .  S
C2770      H2783   1.107       .  S
C2772      C2773   1.398       .  A
C2772      C2777   1.507       .  S
C2773      C2774   1.401       .  A
C2773      H2778   1.081       .  S
C2774      C2775   1.413       .  A
C2775      C2776   1.402       .  A
C2775      C2779   1.504       .  S
C2776      H2780   1.085       .  S
C2777      H2787   1.111       .  S
C2777      H2788   1.110       .  S
C2777      H2789   1.110       .  S
C2779      H2790   1.110       .  S
C2779      H2791   1.104       .  S
C2779      H2792   1.110       .  S
C2793      C2794   1.394       .  A
C2793      C2798   1.398       .  A
C2793      H2803   1.085       .  S
C2794      C2799   1.467       .  S
C2794      C2795   1.407       .  A
C2795      C2796   1.398       .  A
C2795      C2800   1.506       .  S
C2796      C2797   1.406       .  A
C2796      H2801   1.084       .  S
C2797      C2798   1.420       .  A
C2798      C2802   1.506       .  S
C2799      C2804   1.408       .  A
C2799      C2808   1.396       .  A
C2800      H2816   1.110       .  S
C2800      H2817   1.110       .  S
C2800      H2818   1.111       .  S
C2802      H2813   1.111       .  S
C2802      H2814   1.105       .  S
C2802      H2815   1.104       .  S
C2804      C2805   1.400       .  A
C2804      C2809   1.507       .  S
C2805      C2806   1.404       .  A
C2805      H2810   1.084       .  S
C2806      C2807   1.419       .  A
C2807      C2808   1.397       .  A
C2808      H2812   1.085       .  S
C2809      H2820   1.110       .  S
C2809      H2821   1.110       .  S
C2811      H2822   1.110       .  S
C2811      H2823   1.105       .  S
C2811      H2824   1.111       .  S
C2825      C2826   1.406       .  A
C2825      C2830   1.407       .  A
C2825      H2835   1.083       .  S
C2826      C2831   1.494       .  S
C2826      C2827   1.418       .  A
C2827      C2828   1.403       .  A
C2827      C2832   1.509       .  S
C2828      C2829   1.400       .  A
C2828      H2833   1.084       .  S
C2829      C2830   1.414       .  A
C2830      C2834   1.506       .  S
C2831      C2836   1.416       .  A
C2831      C2840   1.394       .  A
C2832      H2848   1.107       .  S
C2832      H2849   1.111       .  S
C2832      H2850   1.111       .  S
C2834      H2845   1.107       .  S
C2834      H2846   1.110       .  S
C2834      H2847   1.110       .  S
C2836      C2837   1.415       .  A
C2836      C2841   1.506       .  S
C2837      C2838   1.409       .  A
C2837      H2842   1.082       .  S
C2838      C2839   1.427       .  A
C2839      C2840   1.396       .  A
C2839      C2843   1.500       .  S
C2840      H2844   1.085       .  S
C2841      H2851   1.111       .  S
C2841      H2852   1.108       .  S
C2841      H2853   1.111       .  S
C2843      H2854   1.110       .  S
C2843      H2855   1.087   1_655  S
C2843      H2856   1.111   1_655  S
C2857      C2858   1.403       .  A
C2857      C2862   1.404       .  A
C2857      H2867   1.085       .  S
C2858      C2863   1.495       .  S
C2858      C2859   1.417       .  A
C2859      C2860   1.411       .  A
C2859      C2864   1.509       .  S
C2860      C2861   1.406       .  A
C2860      H2865   1.084       .  S
C2861      C2862   1.419       .  A
C2862      C2866   1.505       .  S
C2863      C2868   1.417       .  A
C2863      C2872   1.400       .  A
C2864      H2880   1.110       .  S
C2864      H2881   1.105       .  S
C2864      H2882   1.111       .  S
C2866      H2877   1.110       .  S
C2866      H2878   1.110       .  S
C2866      H2879   1.106       .  S
C2868      C2869   1.413       .  A
C2868      C2873   1.508       .  S
C2869      C2870   1.405       .  A
C2870      C2871   1.417       .  A
C2871      C2872   1.401       .  A
C2872      H2876   1.085       .  S
C2873      H2884   1.110       .  S
C2873      H2885   1.105       .  S
C2875      H2886   1.106       .  S
C2875      H2887   1.110       .  S
C2889      C2890   1.399       .  A
C2889      C2894   1.398       .  A
C2889      H2899   1.085       .  S
C2890      C2895   1.489       .  S
C2890      C2891   1.417       .  A
C2891      C2892   1.410       .  A
C2891      C2896   1.507       .  S
C2892      C2893   1.404       .  A
C2892      H2897   1.082       .  S
C2893      C2894   1.413       .  A
C2894      C2898   1.499       .  S
C2895      C2900   1.416       .  A
C2895      C2904   1.402       .  A
C2896      H2912   1.109       .  S
C2896      H2913   1.105       .  S
C2896      H2914   1.111       .  S
C2898      H2909   1.107       .  S
C2898      H2910   1.110       .  S
C2898      H2911   1.100       .  S
C2900      C2901   1.410       .  A
C2900      C2905   1.508       .  S
C2901      C2902   1.405       .  A
C2901      H2906   1.082       .  S
C2902      C2903   1.415       .  A
C2903      C2904   1.399       .  A
C2903      C2907   1.504       .  S
C2904      H2908   1.084       .  S
C2905      H2915   1.111       .  S
C2905      H2916   1.110       .  S
C2905      H2917   1.105       .  S
C2907      H2918   1.110       .  S
C2907      H2919   1.107       .  S
C2907      H2920   1.110       .  S
C2921      C2922   1.403       .  A
C2921      C2926   1.409       .  A
C2921      H2931   1.084       .  S
C2922      C2927   1.479       .  S
C2922      C2923   1.408       .  A
C2923      C2924   1.394       .  A
C2923      C2928   1.504       .  S
C2924      C2925   1.405       .  A
C2924      H2929   1.084       .  S
C2925      C2926   1.418       .  A
C2926      C2930   1.506       .  S
C2927      C2932   1.411       .  A
C2927      C2936   1.396       .  A
C2928      H2944   1.109       .  S
C2928      H2945   1.109       .  S
C2930      H2941   1.111       .  S
C2930      H2942   1.110       .  S
C2930      H2943   1.110       .  S
C2932      C2933   1.407       .  A
C2932      C2937   1.504       .  S
C2933      C2934   1.404       .  A
C2933      H2938   1.084       .  S
C2934      C2935   1.417       .  A
C2935      C2936   1.398       .  A
C2935      C2939   1.503       .  S
C2936      H2940   1.085       .  S
C2937      H2947   1.111       .  S
C2937      H2948   1.110       .  S
C2937      H2949   1.110       .  S
C2939      H2950   1.105       .  S
C2939      H2951   1.107       .  S
C2939      H2952   1.111       .  S
C2953      C2954   1.400       .  A
C2953      C2958   1.399       .  A
C2953      H2963   1.084       .  S
C2954      C2959   1.473       .  S
C2954      C2955   1.409       .  A
C2955      C2956   1.400       .  A
C2955      C2960   1.506       .  S
C2956      C2957   1.402       .  A
C2956      H2961   1.084       .  S
C2957      C2958   1.413       .  A
C2958      C2962   1.505       .  S
C2959      C2964   1.410       .  A
C2959      C2968   1.397       .  A
C2960      H2976   1.110       .  S
C2960      H2977   1.110       .  S
C2960      H2978   1.111       .  S
C2962      H2973   1.111       .  S
C2962      H2974   1.110       .  S
C2962      H2975   1.105       .  S
C2964      C2965   1.402       .  A
C2964      C2969   1.506       .  S
C2965      C2966   1.404       .  A
C2965      H2970   1.084       .  S
C2966      C2967   1.421       .  A
C2967      C2968   1.400       .  A
C2967      C2971   1.510       .  S
C2968      H2972   1.085       .  S
C2969      H2979   1.111       .  S
C2969      H2980   1.110       .  S
C2969      H2981   1.110       .  S
C2971      H2982   1.109       .  S
C2971      H2983   1.110       .  S
C2971      H2984   1.111       .  S
C2985      C2986   1.396       .  A
C2985      C2990   1.399       .  A
C2985      H2995   1.085       .  S
C2986      C2991   1.470       .  S
C2986      C2987   1.410       .  A
C2987      C2988   1.401       .  A
C2987      C2992   1.507       .  S
C2988      C2989   1.403       .  A
C2988      H2993   1.084       .  S
C2989      C2990   1.419       .  A
C2990      C2994   1.510   1_655  S
C2991      C2996   1.407       .  A
C2991      C3000   1.400       .  A
C2992      H3008   1.110       .  S
C2992      H3009   1.110       .  S
C2992      H3010   1.111       .  S
C2994      H3005   1.110       .  S
C2994      H3006   1.111       .  S
C2994      H3007   1.109       .  S
C2996      C2997   1.395       .  A
C2996      C3001   1.507       .  S
C2997      C2998   1.403       .  A
C2997      H3002   1.084       .  S
C2998      C2999   1.418       .  A
C2999      C3000   1.401       .  A
C2999      C3003   1.507       .  S
C3000      H3004   1.085       .  S
C3001      H3011   1.111       .  S
C3001      H3012   1.110       .  S
C3001      H3013   1.110       .  S
C3003      H3014   1.110       .  S
C3003      H3015   1.105       .  S
C3003      H3016   1.110       .  S
C3017      C3018   1.404       .  A
C3017      C3022   1.406       .  A
C3017      H3027   1.084       .  S
C3018      C3023   1.483       .  S
C3018      C3019   1.409       .  A
C3019      C3020   1.403       .  A
C3019      C3024   1.506       .  S
C3020      C3021   1.406       .  A
C3020      H3025   1.084       .  S
C3021      C3022   1.414       .  A
C3022      C3026   1.508       .  S
C3023      C3028   1.411       .  A
C3023      C3032   1.400       .  A
C3024      H3040   1.110       .  S
C3024      H3041   1.110       .  S
C3024      H3042   1.111       .  S
C3026      H3037   1.111       .  S
C3026      H3038   1.108       .  S
C3026      H3039   1.108       .  S
C3028      C3029   1.406       .  A
C3028      C3033   1.506       .  S
C3029      C3030   1.405       .  A
C3030      C3031   1.419       .  A
C3031      C3032   1.403       .  A
C3031      C3035   1.507       .  S
C3032      H3036   1.084       .  S
C3033      H3044   1.110       .  S
C3033      H3045   1.110       .  S
C3035      H3046   1.110       .  S
C3035      H3047   1.108       .  S
C3035      H3048   1.110       .  S
C3049      C3050   1.405       .  A
C3049      C3054   1.398       .  A
C3049      H3059   1.083       .  S
C3050      C3055   1.507       .  S
C3050      C3051   1.425       .  A
C3051      C3052   1.409       .  A
C3051      C3056   1.508       .  S
C3052      C3053   1.403       .  A
C3053      C3054   1.413       .  A
C3055      C3060   1.422       .  A
C3055      C3064   1.409       .  A
C3056      H3072   1.110       .  S
C3056      H3073   1.106       .  S
C3058      H3069   1.108       .  S
C3058      H3070   1.111       .  S
C3058      H3071   1.094       .  S
C3060      C3061   1.399       .  A
C3060      C3065   1.511       .  S
C3061      C3062   1.404       .  A
C3061      H3066   1.083       .  S
C3062      C3063   1.419       .  A
C3063      C3064   1.410       .  A
C3063      C3067   1.506       .  S
C3064      H3068   1.082       .  S
C3065      H3075   1.111       .  S
C3065      H3076   1.110       .  S
C3065      H3077   1.107       .  S
C3067      H3078   1.107       .  S
C3067      H3079   1.110       .  S
C3067      H3080   1.111       .  S
C3081      C3082   1.407       .  A
C3081      C3086   1.399       .  A
C3081      H3091   1.082       .  S
C3082      C3087   1.507       .  S
C3082      C3083   1.422       .  A
C3083      C3084   1.405       .  A
C3083      C3088   1.508       .  S
C3084      C3085   1.404       .  A
C3084      H3089   1.083       .  S
C3085      C3086   1.413       .  A
C3087      C3092   1.419       .  A
C3087      C3096   1.410       .  A
C3088      H3104   1.110       .  S
C3088      H3105   1.107       .  S
C3088      H3106   1.111       .  S
C3090      H3101   1.111       .  S
C3090      H3102   1.108       .  S
C3090      H3103   1.090       .  S
C3092      C3093   1.397       .  A
C3092      C3097   1.506       .  S
C3093      C3094   1.402       .  A
C3093      H3098   1.082       .  S
C3094      C3095   1.418       .  A
C3095      C3096   1.409       .  A
C3095      C3099   1.506       .  S
C3096      H3100   1.081       .  S
C3097      H3107   1.106       .  S
C3097      H3108   1.110       .  S
C3097      H3109   1.108       .  S
C3099      H3110   1.106       .  S
C3099      H3111   1.109       .  S
C3099      H3112   1.111       .  S
C3113      C3114   1.399       .  A
C3113      C3118   1.398       .  A
C3113      H3123   1.085       .  S
C3114      C3119   1.472       .  S
C3114      C3115   1.408       .  A
C3115      C3116   1.399       .  A
C3115      C3120   1.506       .  S
C3116      C3117   1.403       .  A
C3116      H3121   1.084       .  S
C3117      C3118   1.415       .  A
C3118      C3122   1.504       .  S
C3119      C3124   1.410       .  A
C3119      C3128   1.397       .  A
C3120      H3136   1.110       .  S
C3120      H3137   1.110       .  S
C3120      H3138   1.111       .  S
C3122      H3133   1.110       .  S
C3122      H3134   1.111       .  S
C3122      H3135   1.099       .  S
C3124      C3125   1.402       .  A
C3124      C3129   1.507       .  S
C3125      C3126   1.405       .  A
C3125      H3130   1.084       .  S
C3126      C3127   1.419       .  A
C3127      C3128   1.399       .  A
C3127      C3131   1.509       .  S
C3128      H3132   1.085       .  S
C3129      H3140   1.110       .  S
C3129      H3141   1.110       .  S
C3131      H3142   1.110       .  S
C3131      H3143   1.107       .  S
C3131      H3144   1.111       .  S
C3145      C3146   1.401       .  A
C3145      C3150   1.400       .  A
C3145      H3155   1.084       .  S
C3146      C3151   1.470       .  S
C3146      C3147   1.407       .  A
C3147      C3148   1.396       .  A
C3147      C3152   1.507       .  S
C3148      C3149   1.402       .  A
C3148      H3153   1.083       .  S
C3149      C3150   1.412       .  A
C3150      C3154   1.507       .  S
C3151      C3156   1.409       .  A
C3151      C3160   1.397       .  A
C3152      H3168   1.110       .  S
C3152      H3169   1.110       .  S
C3152      H3170   1.111       .  S
C3154      H3165   1.110       .  S
C3154      H3166   1.110       .  S
C3154      H3167   1.107       .  S
C3156      C3157   1.400       .  A
C3156      C3161   1.507       .  S
C3157      C3158   1.404       .  A
C3157      H3162   1.084       .  S
C3158      C3159   1.419       .  A
C3159      C3160   1.400       .  A
C3159      C3163   1.509   1_565  S
C3160      H3164   1.084       .  S
C3161      H3171   1.111       .  S
C3161      H3172   1.110       .  S
C3161      H3173   1.110       .  S
C3163      H3174   1.109       .  S
C3177      C3178   1.401       .  A
C3177      C3182   1.401       .  A
C3177      H3187   1.084       .  S
C3178      C3183   1.473       .  S
C3178      C3179   1.407       .  A
C3179      C3180   1.398       .  A
C3179      C3184   1.507       .  S
C3180      C3181   1.405       .  A
C3180      H3185   1.085       .  S
C3181      C3182   1.414       .  A
C3182      C3186   1.507       .  S
C3183      C3188   1.410       .  A
C3183      C3192   1.396       .  A
C3184      H3200   1.110       .  S
C3184      H3201   1.110       .  S
C3184      H3202   1.111       .  S
C3186      H3197   1.110       .  S
C3186      H3198   1.110       .  S
C3186      H3199   1.107       .  S
C3188      C3189   1.404       .  A
C3188      C3193   1.506       .  S
C3189      C3190   1.405       .  A
C3189      H3194   1.084       .  S
C3190      C3191   1.419       .  A
C3191      C3192   1.399       .  A
C3191      C3195   1.509       .  S
C3192      H3196   1.085       .  S
C3193      H3203   1.111       .  S
C3193      H3204   1.110       .  S
C3193      H3205   1.110       .  S
C3195      H3208   1.110       .  S
C3209      C3210   1.402       .  A
C3209      C3214   1.406       .  A
C3209      H3219   1.085       .  S
C3210      C3215   1.490       .  S
C3210      C3211   1.411       .  A
C3211      C3212   1.406       .  A
C3211      C3216   1.507       .  S
C3212      C3213   1.409       .  A
C3212      H3217   1.084       .  S
C3213      C3214   1.420       .  A
C3214      C3218   1.504       .  S
C3215      C3220   1.414       .  A
C3215      C3224   1.396       .  A
C3216      H3232   1.109       .  S
C3216      H3233   1.111       .  S
C3216      H3234   1.111       .  S
C3218      H3229   1.111       .  S
C3218      H3230   1.110       .  S
C3218      H3231   1.098       .  S
C3220      C3221   1.411       .  A
C3220      C3225   1.506       .  S
C3221      C3222   1.406       .  A
C3221      H3226   1.084       .  S
C3222      C3223   1.426       .  A
C3223      C3224   1.401       .  A
C3223      C3227   1.504   1_565  S
C3224      H3228   1.085       .  S
C3225      H3235   1.111       .  S
C3225      H3236   1.110       .  S
C3225      H3237   1.111       .  S
C3227      H3238   1.110   1_545  S
C3227      H3239   1.097       .  S
C3227      H3240   1.110       .  S
C3241      C3242   1.397       .  A
C3241      C3246   1.400       .  A
C3241      H3251   1.085       .  S
C3242      C3247   1.485       .  S
C3242      C3243   1.412       .  A
C3243      C3244   1.408       .  A
C3243      C3248   1.506       .  S
C3244      C3245   1.404       .  A
C3244      H3249   1.084       .  S
C3245      C3246   1.421       .  A
C3246      C3250   1.504       .  S
C3247      C3252   1.409       .  A
C3247      C3256   1.401       .  A
C3248      H3264   1.110       .  S
C3248      H3265   1.111       .  S
C3248      H3266   1.111       .  S
C3250      H3261   1.110       .  S
C3250      H3262   1.110       .  S
C3250      H3263   1.099       .  S
C3252      C3253   1.402       .  A
C3252      C3257   1.507       .  S
C3253      C3254   1.407       .  A
C3253      H3258   1.084       .  S
C3254      C3255   1.422       .  A
C3255      C3256   1.408       .  A
C3255      C3259   1.508   1_565  S
C3256      H3260   1.084       .  S
C3257      H3267   1.111       .  S
C3257      H3268   1.109       .  S
C3257      H3269   1.111       .  S
C3259      H3270   1.107       .  S
C3259      H3271   1.106       .  S
C3273      C3274   1.402       .  A
C3273      C3278   1.405       .  A
C3273      H3283   1.085       .  S
C3274      C3279   1.483       .  S
C3274      C3275   1.409       .  A
C3275      C3276   1.401       .  A
C3275      C3280   1.507       .  S
C3276      C3277   1.408       .  A
C3276      H3281   1.084       .  S
C3277      C3278   1.418       .  A
C3278      C3282   1.505       .  S
C3279      C3284   1.412       .  A
C3279      C3288   1.394       .  A
C3280      H3296   1.109       .  S
C3280      H3297   1.111       .  S
C3280      H3298   1.111       .  S
C3282      H3293   1.110       .  S
C3282      H3294   1.110       .  S
C3282      H3295   1.099       .  S
C3284      C3285   1.409       .  A
C3284      C3289   1.505       .  S
C3285      C3286   1.405       .  A
C3286      C3287   1.426       .  A
C3287      C3288   1.398       .  A
C3287      C3291   1.506       .  S
C3288      H3292   1.085       .  S
C3289      H3300   1.110       .  S
C3289      H3301   1.111       .  S
C3291      H3302   1.110       .  S
C3291      H3303   1.098       .  S
C3291      H3304   1.110       .  S
C3305      C3306   1.398       .  A
C3305      C3310   1.398       .  A
C3305      H3315   1.085       .  S
C3306      C3311   1.472       .  S
C3306      C3307   1.407       .  A
C3307      C3308   1.398       .  A
C3307      C3312   1.506       .  S
C3308      C3309   1.404       .  A
C3308      H3313   1.084       .  S
C3309      C3310   1.419       .  A
C3310      C3314   1.505       .  S
C3311      C3316   1.410       .  A
C3311      C3320   1.398       .  A
C3312      H3328   1.110       .  S
C3312      H3329   1.110       .  S
C3312      H3330   1.111       .  S
C3314      H3325   1.111       .  S
C3314      H3326   1.109       .  S
C3314      H3327   1.099       .  S
C3316      C3317   1.399       .  A
C3316      C3321   1.508       .  S
C3317      C3318   1.404       .  A
C3317      H3322   1.084       .  S
C3318      C3319   1.418       .  A
C3319      C3320   1.401       .  A
C3319      C3323   1.508       .  S
C3320      H3324   1.084       .  S
C3321      H3331   1.111       .  S
C3321      H3332   1.110       .  S
C3321      H3333   1.110       .  S
C3323      H3336   1.111       .  S
C3337      C3338   1.395       .  A
C3337      C3342   1.396       .  A
C3337      H3347   1.085       .  S
C3338      C3343   1.474       .  S
C3338      C3339   1.409       .  A
C3339      C3340   1.405       .  A
C3339      C3344   1.505       .  S
C3340      C3341   1.406       .  A
C3340      H3345   1.084       .  S
C3341      C3342   1.420       .  A
C3342      C3346   1.504       .  S
C3343      C3348   1.408       .  A
C3343      C3352   1.400       .  A
C3344      H3360   1.110       .  S
C3344      H3361   1.110       .  S
C3344      H3362   1.111       .  S
C3346      H3357   1.111       .  S
C3346      H3358   1.110       .  S
C3346      H3359   1.096       .  S
C3348      C3349   1.400       .  A
C3348      C3353   1.507       .  S
C3349      C3350   1.405       .  A
C3349      H3354   1.084       .  S
C3350      C3351   1.418       .  A
C3351      C3352   1.403       .  A
C3351      C3355   1.508       .  S
C3352      H3356   1.085       .  S
C3353      H3363   1.111       .  S
C3353      H3364   1.110       .  S
C3353      H3365   1.110       .  S
C3355      H3366   1.111       .  S
C3355      H3367   1.106       .  S
C3369      C3370   1.400       .  A
C3369      C3374   1.403       .  A
C3369      H3379   1.084       .  S
C3370      C3375   1.483       .  S
C3370      C3371   1.412       .  A
C3371      C3372   1.404       .  A
C3371      C3376   1.507       .  S
C3372      C3373   1.406       .  A
C3372      H3377   1.084       .  S
C3373      C3374   1.420       .  A
C3375      C3380   1.412       .  A
C3375      C3384   1.403       .  A
C3376      H3392   1.109       .  S
C3376      H3393   1.110       .  S
C3376      H3394   1.111       .  S
C3378      H3389   1.110       .  S
C3378      H3390   1.111       .  S
C3378      H3391   1.110       .  S
C3380      C3381   1.400       .  A
C3380      C3385   1.507       .  S
C3381      C3382   1.402       .  A
C3381      H3386   1.085       .  S
C3382      C3383   1.414       .  A
C3383      C3384   1.403       .  A
C3383      C3387   1.507       .  S
C3384      H3388   1.084       .  S
C3385      H3395   1.111       .  S
C3385      H3396   1.109       .  S
C3385      H3397   1.110       .  S
C3387      H3398   1.110       .  S
C3387      H3399   1.107       .  S
C3387      H3400   1.111       .  S
C3401      C3402   1.401       .  A
C3401      C3406   1.404       .  A
C3401      H3411   1.085       .  S
C3402      C3407   1.481       .  S
C3402      C3403   1.408       .  A
C3403      C3404   1.400       .  A
C3403      C3408   1.507       .  S
C3404      C3405   1.408       .  A
C3404      H3409   1.084       .  S
C3405      C3406   1.418       .  A
C3406      C3410   1.505       .  S
C3407      C3412   1.412       .  A
C3407      C3416   1.393       .  A
C3408      H3424   1.109       .  S
C3408      H3425   1.110       .  S
C3408      H3426   1.111       .  S
C3410      H3421   1.111       .  S
C3410      H3422   1.110       .  S
C3410      H3423   1.099       .  S
C3412      C3413   1.407       .  A
C3412      C3417   1.505       .  S
C3413      C3414   1.404       .  A
C3413      H3418   1.084       .  S
C3414      C3415   1.426       .  A
C3415      C3416   1.397       .  A
C3415      C3419   1.506       .  S
C3416      H3420   1.085       .  S
C3417      H3427   1.111       .  S
C3417      H3428   1.110       .  S
C3417      H3429   1.111       .  S
C3419      H3430   1.110       .  S
C3433      C3434   1.397       .  A
C3433      C3438   1.400       .  A
C3433      H3443   1.085       .  S
C3434      C3439   1.488       .  S
C3434      C3435   1.415       .  A
C3435      C3436   1.410       .  A
C3435      C3440   1.506       .  S
C3436      C3437   1.404       .  A
C3436      H3441   1.084       .  S
C3437      C3438   1.421       .  A
C3438      C3442   1.504       .  S
C3439      C3444   1.410       .  A
C3439      C3448   1.401       .  A
C3440      H3456   1.110       .  S
C3440      H3457   1.111       .  S
C3440      H3458   1.111       .  S
C3442      H3453   1.110       .  S
C3442      H3454   1.110       .  S
C3442      H3455   1.099       .  S
C3444      C3445   1.403       .  A
C3444      C3449   1.507       .  S
C3445      C3446   1.409       .  A
C3445      H3450   1.084       .  S
C3446      C3447   1.422       .  A
C3447      C3448   1.407       .  A
C3448      H3452   1.085       .  S
C3449      H3459   1.111       .  S
C3449      H3460   1.109       .  S
C3449      H3461   1.111       .  S
C3451      H3462   1.110       .  S
C3451      H3463   1.097       .  S
C3451      H3464   1.111       .  S
C3465      C3466   1.396       .  A
C3465      C3470   1.401       .  A
C3465      H3475   1.085       .  S
C3466      C3471   1.491       .  S
C3466      C3467   1.414       .  A
C3467      C3468   1.413       .  A
C3467      C3472   1.505       .  S
C3468      C3469   1.407       .  A
C3469      C3470   1.426       .  A
C3470      C3474   1.502   1_565  S
C3471      C3476   1.411       .  A
C3471      C3480   1.400       .  A
C3472      H3488   1.110       .  S
C3472      H3489   1.111       .  S
C3474      H3486   1.110   1_545  S
C3476      C3477   1.407       .  A
C3476      C3481   1.506       .  S
C3477      C3478   1.409       .  A
C3477      H3482   1.084       .  S
C3478      C3479   1.422       .  A
C3479      C3480   1.407       .  A
C3479      C3483   1.502       .  S
C3480      H3484   1.085       .  S
C3481      H3491   1.111       .  S
C3481      H3492   1.109       .  S
C3481      H3493   1.111       .  S
C3483      H3494   1.110       .  S
C3483      H3495   1.093       .  S
C3483      H3496   1.111       .  S
