geometry optimzed in LAMMPS
_audit_creation_date              2020-11-30 
_audit_creation_method            'lammps2cif' 
_symmetry_space_group_name_H-M    'P1' 
_symmetry_Int_Tables_number       1 
_symmetry_cell_setting            triclinic 
loop_ 
_symmetry_equiv_pos_as_xyz 
  x,y,z 
_cell_length_a                    36.49882217 
_cell_length_b                    36.39962725270944 
_cell_length_c                    31.04122440973753 
_cell_angle_alpha                 90.1734482160529 
_cell_angle_beta                  89.95778301530662 
_cell_angle_gamma                 88.20454474030161 
loop_ 
_atom_site_label 
_atom_site_type_symbol 
_atom_site_fract_x 
_atom_site_fract_y 
_atom_site_fract_z 
_atom_site_charge 
O1          O  0.00119476  0.39427609  0.43301145    -0.74200
O2          O  0.99837527  0.43906451  0.38160952    -0.53100
C3          C  0.50053012  0.40524954  0.39365552     0.79500
O4          O  0.39497449  0.50201703  0.07768360    -0.58800
O5          O  0.43975083  0.49889306  0.12904099    -0.51800
C6          C  0.40597713  0.50113069  0.11707868     0.71500
O7          O  0.39466580  0.99519579  0.43319112    -0.73400
O8          O  0.43932450  0.99670118  0.38164629    -0.53900
C9          C  0.40562062  0.49537488  0.39379149     0.77500
O10         O  0.49612460  0.39472842  0.07688559    -0.58500
O11         O  0.49718319  0.43963619  0.12840688    -0.51600
C12         C  0.49628204  0.40579547  0.11626684     0.74100
Zr13       Zr  0.99873748  0.42064402  0.50503113     2.54700
O14         O  0.45279967  0.37381542  0.49977061    -0.79100
O15         O  0.04956999  0.37610719  0.01148321    -0.92500
Zr16       Zr  0.42063123  0.99832696  0.50521767     2.64700
O17         O  0.37620453  0.44983531  0.50707987    -0.97500
O18         O  0.37297635  0.04654789  0.00204116    -0.79500
O19         O  0.45903576  0.45873428  0.46303916    -0.82900
O20         O  0.45887668  0.45885567  0.04717239    -2.17600
O21         O  0.09925981  0.49271224  0.07782356    -0.66300
O22         O  0.05433535  0.49546523  0.12911324    -0.50800
C23         C  0.08815795  0.99336613  0.11721954     0.72500
O24         O  0.99483988  0.09929455  0.43207321    -0.59200
O25         O  0.99601095  0.05412436  0.38080992    -0.51100
C26         C  0.99509309  0.08807089  0.39268182     0.74300
O27         O  0.49815238  0.09976283  0.07663938    -0.70600
O28         O  0.49739029  0.05509033  0.12821869    -0.49200
C29         C  0.99847509  0.08879056  0.11597270     0.75700
O30         O  0.09901135  0.00000310  0.43278654    -0.65900
O31         O  0.05441832  0.99702343  0.38134352    -0.53100
C32         C  0.08802783  0.99918839  0.39341842     0.74100
Zr33       Zr  0.07379101  0.49601899  0.00518898     2.77500
O34         O  0.11956848  0.04323134  0.50826678    -0.96600
O35         O  0.12051803  0.44678460  0.00230305    -0.77500
Zr36       Zr  0.49582529  0.07378524  0.00461054     2.70100
O37         O  0.04332478  0.11919632  0.00185358    -0.78700
O38         O  0.44633724  0.12019825  0.50694357    -0.97800
Zr39       Zr  0.99702190  0.99688839  0.42113214     2.21500
Zr40       Zr  0.49707308  0.49732930  0.08888639     2.11100
O41         O  0.03531875  0.03560485  0.04700452    -2.46500
O42         O  0.03533396  0.03522067  0.46277818    -0.78500
O43         O  0.03678434  0.45778375  0.04748132    -0.70700
O44         O  0.45738033  0.03661809  0.46266672    -2.31700
O45         O  0.03697286  0.45758806  0.46266194    -2.27900
O46         O  0.45761570  0.03695806  0.04734377    -0.72500
H47         H  0.44387018  0.44408566  0.06549986     0.79500
H48         H  0.44190905  0.05181146  0.44430032     0.80600
H49         H  0.05034949  0.05043113  0.06531352     0.82800
H50         H  0.05248451  0.44238110  0.44425911     0.80500
H51         H  0.38596545  0.06890712  0.49368893     0.43500
H52         H  0.43195294  0.11413331  0.03288753     0.42500
H53         H  0.06165310  0.10884297  0.48124887     0.42100
H54         H  0.11290367  0.05838358  0.03380030     0.40100
H55         H  0.11847690  0.43610752  0.97306454     0.43200
H56         H  0.07028528  0.38764261  0.49669034     0.38000
H57         H  0.43202159  0.38605413  0.48443758     0.44100
H58         H  0.38303440  0.43470044  0.03244523     0.40500
H59         H  0.14253498  0.02990413  0.01660330     0.45400
H60         H  0.04293193  0.35543423  0.49254997     0.44200
H61         H  0.35283208  0.46249874  0.51534433     0.44300
H62         H  0.45850805  0.14326109  0.01456338     0.44700
C63         C  0.50163918  0.28055245  0.23171339     0.03400
C64         C  0.50261009  0.28054898  0.27738170     0.03300
C65         C  0.50260961  0.24690699  0.29936913    -0.17200
C66         C  0.50155650  0.21316411  0.27760446     0.03400
C67         C  0.50176466  0.21314329  0.23197305     0.03300
C68         C  0.50187927  0.24674936  0.20999788    -0.17200
H69         H  0.50166613  0.24658056  0.17505111     0.05400
H70         H  0.50279735  0.24702437  0.33431624     0.05400
C71         C  0.28065405  0.49810166  0.23242581     0.03400
C72         C  0.28062396  0.49792063  0.27811593     0.03300
C73         C  0.24693678  0.49840744  0.30005475    -0.17200
C74         C  0.21327491  0.49812944  0.27821147     0.03400
C75         C  0.21328498  0.49696201  0.23255301     0.03300
C76         C  0.24696637  0.49728869  0.21057794    -0.17200
H77         H  0.24695749  0.49693534  0.17563764     0.05400
H78         H  0.24693225  0.49874856  0.33499935     0.05400
C79         C  0.11718716  0.49194992  0.15082577    -0.04300
C80         C  0.12047873  0.02110469  0.18049991    -0.01400
C81         C  0.15204304  0.02338578  0.20651435     0.03600
C82         C  0.17903720  0.49463918  0.20619178    -0.04300
C83         C  0.17453639  0.46425266  0.17821142    -0.01400
C84         C  0.14413426  0.46324717  0.15025753     0.03600
C85         C  0.09200614  0.04959456  0.18356886     0.38300
C86         C  0.20155926  0.43410119  0.17762489     0.38200
C87         C  0.14027715  0.43226822  0.12121624     0.36700
C88         C  0.15792530  0.05706377  0.23019077     0.36700
N89         N  0.13710177  0.40755147  0.09812451    -0.38100
N90         N  0.16178661  0.08471827  0.24783120    -0.38100
N91         N  0.22314710  0.41012047  0.17736484    -0.37600
N92         N  0.06937682  0.07230402  0.18734697    -0.37600
C93         C  0.17897618  0.49955578  0.30476563    -0.04300
C94         C  0.17172738  0.02996208  0.33250890    -0.01400
C95         C  0.14106028  0.03043827  0.36012481     0.03600
C96         C  0.11700556  0.00084492  0.36005599    -0.04300
C97         C  0.12315963  0.47133973  0.33115809    -0.01400
C98         C  0.15476145  0.46993904  0.30489885     0.03600
C99         C  0.19611501  0.06072348  0.33323628     0.38300
C100        C  0.09763104  0.44168738  0.32928141     0.38200
C101        C  0.16369191  0.43640491  0.28136099     0.36700
C102        C  0.13357522  0.06193538  0.38797621     0.36700
N103        N  0.17007298  0.40886861  0.26377974    -0.38100
N104        N  0.12720129  0.08703994  0.41000898    -0.38100
N105        N  0.07724908  0.41809291  0.32681336    -0.37600
N106        N  0.21549827  0.08528356  0.33382715    -0.37600
C107        C  0.37685696  0.50249338  0.15057932    -0.04300
C108        C  0.37329413  0.47321568  0.17985433    -0.01400
C109        C  0.34187573  0.47135783  0.20628132     0.03600
C110        C  0.31488460  0.50011490  0.20588204    -0.04300
C111        C  0.31932365  0.03019475  0.17762224    -0.01400
C112        C  0.35001043  0.03125849  0.15009187     0.03600
C113        C  0.40119410  0.44406231  0.18175440     0.38300
C114        C  0.29192051  0.05996157  0.17621565     0.38200
C115        C  0.35435717  0.06242861  0.12163953     0.36700
C116        C  0.33608703  0.43816579  0.23067949     0.36700
N117        N  0.35812155  0.08733269  0.09914806    -0.38100
N118        N  0.33208867  0.41102046  0.24914503    -0.38100
N119        N  0.26998407  0.08359708  0.17509298    -0.37600
N120        N  0.42335525  0.42076540  0.18420450    -0.37600
C121        C  0.37651462  0.49416246  0.36046820    -0.04300
C122        C  0.35193705  0.46497513  0.36034224    -0.01400
C123        C  0.32138799  0.46586441  0.33259226     0.03600
C124        C  0.31485843  0.49612810  0.30470462    -0.04300
C125        C  0.33940897  0.02541510  0.30508616    -0.01400
C126        C  0.37064363  0.02389704  0.33196931     0.03600
C127        C  0.35838107  0.43361006  0.38844134     0.38300
C128        C  0.33095306  0.05865787  0.28103141     0.38200
C129        C  0.39579595  0.05389108  0.33177770     0.36700
C130        C  0.29626404  0.43569655  0.33326195     0.36700
N131        N  0.41594633  0.07776297  0.33122163    -0.38100
N132        N  0.27612560  0.41176109  0.33357032    -0.38100
N133        N  0.32436886  0.08568497  0.26268700    -0.37600
N134        N  0.36359433  0.40845789  0.41057381    -0.37600
C135        C  0.50221348  0.17898493  0.20532602    -0.04300
C136        C  0.03128125  0.17229237  0.17573306    -0.01400
C137        C  0.03034632  0.14223596  0.14726124     0.03600
C138        C  0.50111078  0.11780639  0.14906793    -0.04300
C139        C  0.47311395  0.12329767  0.17988667    -0.01400
C140        C  0.47272019  0.15470317  0.20653722     0.03600
C141        C  0.06202463  0.19669002  0.17400674     0.38300
C142        C  0.44386268  0.09742419  0.18319307     0.38200
C143        C  0.44024463  0.16338774  0.23192223     0.36700
C144        C  0.06001183  0.13585422  0.11662887     0.36700
N145        N  0.41355674  0.16959805  0.25109103    -0.38100
N146        N  0.08361535  0.13044204  0.09228601    -0.38100
N147        N  0.42063053  0.07675217  0.18668055    -0.37600
N148        N  0.08639392  0.21625559  0.17266713    -0.37600
C149        C  0.49856662  0.17908730  0.30418958    -0.04300
C150        C  0.02572109  0.15053754  0.30246915    -0.01400
C151        C  0.02234144  0.11882973  0.32805616     0.03600
C152        C  0.99419600  0.11713115  0.35913258    -0.04300
C153        C  0.46705576  0.14561398  0.36105413    -0.01400
C154        C  0.46880012  0.17602476  0.33323597     0.03600
C155        C  0.05890096  0.15478344  0.27753147     0.38300
C156        C  0.43660179  0.14307449  0.39093791     0.38200
C157        C  0.43980735  0.20428984  0.33463671     0.36700
C158        C  0.04833170  0.08830771  0.32252827     0.36700
N159        N  0.41676005  0.22686210  0.33536919    -0.38100
N160        N  0.06884132  0.06397873  0.31654983    -0.38100
N161        N  0.41222400  0.14069471  0.41452546    -0.37400
N162        N  0.08604241  0.15748885  0.25868621    -0.37600
C163        C  0.49537127  0.37663046  0.14946199    -0.04300
C164        C  0.02361195  0.37295783  0.18028633    -0.01400
C165        C  0.02654902  0.34122767  0.20623757     0.03600
C166        C  0.49897174  0.31475505  0.20495062    -0.04300
C167        C  0.46945185  0.31968627  0.17553998    -0.01400
C168        C  0.46822803  0.34988891  0.14730525     0.03600
C169        C  0.05054519  0.40117006  0.18448808     0.38300
C170        C  0.44020140  0.29353441  0.17376152     0.38200
C171        C  0.43855450  0.35365243  0.11626728     0.36700
C172        C  0.05977737  0.33465610  0.23092259     0.36700
N173        N  0.41490154  0.35651903  0.09157150    -0.38100
N174        N  0.08704220  0.33023061  0.24946059    -0.38100
N175        N  0.41674453  0.27290453  0.17207367    -0.37600
N176        N  0.07187298  0.42370625  0.18890312    -0.37600
C177        C  0.50300559  0.37609548  0.36029004    -0.04300
C178        C  0.47499402  0.37255575  0.32937749    -0.01400
C179        C  0.47412846  0.34094764  0.30308570     0.03600
C180        C  0.50346139  0.31469087  0.30403372    -0.04300
C181        C  0.03276278  0.31952804  0.33319756    -0.01400
C182        C  0.03210321  0.34960644  0.36177774     0.03600
C183        C  0.44665582  0.40102991  0.32476568     0.38300
C184        C  0.06365369  0.29335440  0.33410218     0.38200
C185        C  0.06221846  0.35392564  0.39174593     0.36700
C186        C  0.44144688  0.33411098  0.27818927     0.36700
N187        N  0.08654691  0.35737411  0.41514379    -0.38100
N188        N  0.41481193  0.32891790  0.25923654    -0.38100
N189        N  0.08827174  0.27252918  0.33467837    -0.37600
N190        N  0.42428285  0.42379912  0.31967921    -0.37600
O191        O  0.00119459  0.39427616  0.93301150    -0.74200
O192        O  0.99837534  0.43906455  0.88160957    -0.53100
C193        C  0.50053002  0.40524953  0.89365545     0.79500
O194        O  0.39497435  0.50201693  0.57768345    -0.58800
O195        O  0.43975073  0.49889315  0.62904084    -0.51800
C196        C  0.40597705  0.50113079  0.61707853     0.71500
O197        O  0.39466593  0.99519572  0.93319115    -0.73400
O198        O  0.43932464  0.99670118  0.88164634    -0.53900
C199        C  0.40562070  0.49537491  0.89379137     0.77500
O200        O  0.49612449  0.39472852  0.57688578    -0.58500
O201        O  0.49718326  0.43963628  0.62840711    -0.51600
C202        C  0.49628205  0.40579557  0.61626700     0.74100
Zr203      Zr  0.99873714  0.42064409  0.00503120     2.54700
O204        O  0.45279844  0.37381636  0.99976977    -0.79100
O205        O  0.04957180  0.37610881  0.51148308    -0.92500
Zr206      Zr  0.42063131  0.99832688  0.00521765     2.64700
O207        O  0.37620554  0.44983457  0.00707993    -0.97500
O208        O  0.37297495  0.04654622  0.50204160    -0.79500
O209        O  0.45903567  0.45873442  0.96303919    -0.82900
O210        O  0.45887630  0.45885523  0.54717300    -2.17600
O211        O  0.09925994  0.49271237  0.57782352    -0.66300
O212        O  0.05433556  0.49546515  0.62911333    -0.50800
C213        C  0.08815788  0.99336620  0.61721973     0.72500
O214        O  0.99483987  0.09929449  0.93207320    -0.59200
O215        O  0.99601119  0.05412429  0.88080983    -0.51100
C216        C  0.99509327  0.08807083  0.89268178     0.74300
O217        O  0.49815227  0.09976275  0.57663930    -0.70600
O218        O  0.49739060  0.05509033  0.62821868    -0.49200
C219        C  0.99847524  0.08879054  0.61597274     0.75700
O220        O  0.09901154  0.00000306  0.93278656    -0.65900
O221        O  0.05441852  0.99702337  0.88134351    -0.53100
C222        C  0.08802799  0.99918834  0.89341843     0.74100
Zr223      Zr  0.07379090  0.49601916  0.50518910     2.77500
O224        O  0.11956787  0.04323217  0.00826834    -0.96600
O225        O  0.12051790  0.44678479  0.50230299    -0.77500
Zr226      Zr  0.49582514  0.07378526  0.50461041     2.70100
O227        O  0.04332442  0.11919658  0.50185362    -0.78700
O228        O  0.44633669  0.12019713  0.00694251    -0.97800
Zr229      Zr  0.99702216  0.99688814  0.92113207     2.21500
Zr230      Zr  0.49707306  0.49732922  0.58888648     2.11100
O231        O  0.03531913  0.03560530  0.54700503    -2.46500
O232        O  0.03533392  0.03522058  0.96277818    -0.78500
O233        O  0.03678441  0.45778372  0.54748150    -0.70700
O234        O  0.45738092  0.03661758  0.96266722    -2.31700
O235        O  0.03697278  0.45758789  0.96266202    -2.27900
O236        O  0.45761574  0.03695802  0.54734383    -0.72500
H237        H  0.44387035  0.44408590  0.56550005     0.79500
H238        H  0.44190901  0.05181132  0.94430012     0.80600
H239        H  0.05034925  0.05043131  0.56531336     0.82800
H240        H  0.05248443  0.44238048  0.94425960     0.80500
H241        H  0.38596619  0.06890813  0.99368501     0.43500
H242        H  0.43195343  0.11413405  0.53288877     0.42500
H243        H  0.06165325  0.10884249  0.98124875     0.42100
H244        H  0.11290322  0.05838411  0.53379763     0.40100
H245        H  0.11847672  0.43610755  0.47306457     0.43200
H246        H  0.07028446  0.38764145  0.99669179     0.38000
H247        H  0.43202122  0.38605511  0.98443538     0.44100
H248        H  0.38303398  0.43470024  0.53244450     0.40500
H249        H  0.14253473  0.02990360  0.51660406     0.45400
H250        H  0.04293086  0.35543379  0.99254890     0.44200
H251        H  0.35283255  0.46249804  0.01534318     0.44300
H252        H  0.45850891  0.14326183  0.51456478     0.44700
C253        C  0.50163916  0.28055237  0.73171299     0.03400
C254        C  0.50261006  0.28054895  0.77738147     0.03300
C255        C  0.50260956  0.24690705  0.79936887    -0.17200
C256        C  0.50155642  0.21316415  0.77760429     0.03400
C257        C  0.50176460  0.21314330  0.73197271     0.03300
C258        C  0.50187920  0.24674928  0.70999713    -0.17200
H259        H  0.50166547  0.24658033  0.67505037     0.05400
H260        H  0.50279710  0.24702458  0.83431603     0.05400
C261        C  0.28065394  0.49810168  0.73242537     0.03400
C262        C  0.28062397  0.49792066  0.77811566     0.03300
C263        C  0.24693692  0.49840744  0.80005461    -0.17200
C264        C  0.21327503  0.49812938  0.77821139     0.03400
C265        C  0.21328503  0.49696196  0.73255272     0.03300
C266        C  0.24696627  0.49728863  0.71057712    -0.17200
H267        H  0.24695725  0.49693494  0.67563684     0.05400
H268        H  0.24693251  0.49874819  0.83499928     0.05400
C269        C  0.11718728  0.49194988  0.65082573    -0.04300
C270        C  0.12047875  0.02110481  0.68049989    -0.01400
C271        C  0.15204311  0.02338593  0.70651428     0.03600
C272        C  0.17903716  0.49463904  0.70619186    -0.04300
C273        C  0.17453634  0.46425251  0.67821149    -0.01400
C274        C  0.14413423  0.46324704  0.65025765     0.03600
C275        C  0.09200603  0.04959452  0.68356889     0.38300
C276        C  0.20155923  0.43410109  0.67762493     0.38200
C277        C  0.14027712  0.43226817  0.62121629     0.36700
C278        C  0.15792540  0.05706395  0.73019062     0.36700
N279        N  0.13710163  0.40755146  0.59812453    -0.38100
N280        N  0.16178673  0.08471845  0.74783104    -0.38100
N281        N  0.22314714  0.41012044  0.67736497    -0.37600
N282        N  0.06937674  0.07230398  0.68734713    -0.37600
C283        C  0.17897628  0.49955565  0.80476568    -0.04300
C284        C  0.17172741  0.02996216  0.83250897    -0.01400
C285        C  0.14106035  0.03043828  0.86012492     0.03600
C286        C  0.11700567  0.00084491  0.86005604    -0.04300
C287        C  0.12315973  0.47133960  0.83115817    -0.01400
C288        C  0.15476157  0.46993890  0.80489896     0.03600
C289        C  0.19611495  0.06072364  0.83323635     0.38300
C290        C  0.09763127  0.44168717  0.82928158     0.38200
C291        C  0.16369205  0.43640478  0.78136110     0.36700
C292        C  0.13357527  0.06193538  0.88797632     0.36700
N293        N  0.17007312  0.40886847  0.76377985    -0.38100
N294        N  0.12720140  0.08703988  0.91000920    -0.38100
N295        N  0.07724947  0.41809258  0.82681352    -0.37600
N296        N  0.21549824  0.08528369  0.83382730    -0.37600
C297        C  0.37685689  0.50249345  0.65057920    -0.04300
C298        C  0.37329412  0.47321573  0.67985420    -0.01400
C299        C  0.34187569  0.47135786  0.70628121     0.03600
C300        C  0.31488453  0.50011491  0.70588189    -0.04300
C301        C  0.31932366  0.03019471  0.67762224    -0.01400
C302        C  0.35001041  0.03125845  0.65009190     0.03600
C303        C  0.40119412  0.44406231  0.68175422     0.38300
C304        C  0.29192059  0.05996163  0.67621558     0.38200
C305        C  0.35435701  0.06242853  0.62163951     0.36700
C306        C  0.33608704  0.43816582  0.73067939     0.36700
N307        N  0.35812144  0.08733252  0.59914792    -0.38100
N308        N  0.33208878  0.41102040  0.74914481    -0.38100
N309        N  0.26998415  0.08359715  0.67509286    -0.37600
N310        N  0.42335526  0.42076538  0.68420432    -0.37600
C311        C  0.37651471  0.49416246  0.86046806    -0.04300
C312        C  0.35193706  0.46497517  0.86034216    -0.01400
C313        C  0.32138803  0.46586449  0.83259208     0.03600
C314        C  0.31485855  0.49612811  0.80470435    -0.04300
C315        C  0.33940898  0.02541508  0.80508624    -0.01400
C316        C  0.37064366  0.02389704  0.83196938     0.03600
C317        C  0.35838105  0.43361004  0.88844123     0.38300
C318        C  0.33095314  0.05865780  0.78103136     0.38200
C319        C  0.39579588  0.05389118  0.83177784     0.36700
C320        C  0.29626402  0.43569669  0.83326170     0.36700
N321        N  0.41594627  0.07776307  0.83122176    -0.38100
N322        N  0.27612557  0.41176123  0.83357012    -0.38100
N323        N  0.32436898  0.08568490  0.76268689    -0.37600
N324        N  0.36359418  0.40845783  0.91057368    -0.37600
C325        C  0.50221349  0.17898491  0.70532594    -0.04300
C326        C  0.03128136  0.17229233  0.67573306    -0.01400
C327        C  0.03034650  0.14223589  0.64726137     0.03600
C328        C  0.50111091  0.11780634  0.64906796    -0.04300
C329        C  0.47311403  0.12329763  0.67988671    -0.01400
C330        C  0.47272022  0.15470314  0.70653718     0.03600
C331        C  0.06202470  0.19668997  0.67400680     0.38300
C332        C  0.44386271  0.09742415  0.68319306     0.38200
C333        C  0.44024463  0.16338770  0.73192219     0.36700
C334        C  0.06001184  0.13585424  0.61662890     0.36700
N335        N  0.41355673  0.16959826  0.75109088    -0.38100
N336        N  0.08361524  0.13044195  0.59228595    -0.38100
N337        N  0.42063060  0.07675206  0.68668037    -0.37600
N338        N  0.08639389  0.21625564  0.67266725    -0.37600
C339        C  0.49856667  0.17908732  0.80418958    -0.04300
C340        C  0.02572105  0.15053742  0.80246898    -0.01400
C341        C  0.02234145  0.11882960  0.82805597     0.03600
C342        C  0.99419610  0.11713106  0.85913253    -0.04300
C343        C  0.46705584  0.14561400  0.86105408    -0.01400
C344        C  0.46880014  0.17602475  0.83323589     0.03600
C345        C  0.05890091  0.15478333  0.77753129     0.38300
C346        C  0.43660183  0.14307457  0.89093781     0.38200
C347        C  0.43980738  0.20428989  0.83463668     0.36700
C348        C  0.04833187  0.08830765  0.82252812     0.36700
N349        N  0.41676014  0.22686223  0.83536936    -0.38100
N350        N  0.06884151  0.06397867  0.81654963    -0.38100
N351        N  0.41222408  0.14069481  0.91452541    -0.37400
N352        N  0.08604234  0.15748874  0.75868597    -0.37600
C353        C  0.49537127  0.37663054  0.64946206    -0.04300
C354        C  0.02361196  0.37295791  0.68028638    -0.01400
C355        C  0.02654911  0.34122765  0.70623745     0.03600
C356        C  0.49897175  0.31475505  0.70495050    -0.04300
C357        C  0.46945176  0.31968641  0.67554011    -0.01400
C358        C  0.46822796  0.34988903  0.64730537     0.03600
C359        C  0.05054538  0.40117001  0.68448790     0.38300
C360        C  0.44020142  0.29353441  0.67376152     0.38200
C361        C  0.43855443  0.35365249  0.61626740     0.36700
C362        C  0.05977745  0.33465620  0.73092252     0.36700
N363        N  0.41490154  0.35651920  0.59157154    -0.38100
N364        N  0.08704234  0.33023068  0.74946042    -0.38100
N365        N  0.41674457  0.27290452  0.67207357    -0.37600
N366        N  0.07187328  0.42370611  0.68890290    -0.37600
C367        C  0.50300557  0.37609545  0.86029000    -0.04300
C368        C  0.47499395  0.37255564  0.82937756    -0.01400
C369        C  0.47412847  0.34094758  0.80308570     0.03600
C370        C  0.50346141  0.31469086  0.80403367    -0.04300
C371        C  0.03276287  0.31952810  0.83319749    -0.01400
C372        C  0.03210319  0.34960639  0.86177776     0.03600
C373        C  0.44665575  0.40102982  0.82476573     0.38300
C374        C  0.06365371  0.29335446  0.83410225     0.38200
C375        C  0.06221842  0.35392551  0.89174592     0.36700
C376        C  0.44144688  0.33411092  0.77818931     0.36700
N377        N  0.08654674  0.35737407  0.91514393    -0.38100
N378        N  0.41481193  0.32891780  0.75923659    -0.38100
N379        N  0.08827171  0.27252920  0.83467841    -0.37600
N380        N  0.42428282  0.42379908  0.81967935    -0.37600
O381        O  0.00119509  0.89427613  0.43301142    -0.74200
O382        O  0.99837559  0.93906454  0.38160947    -0.53100
C383        C  0.50053051  0.90524949  0.39365548     0.79500
O384        O  0.39497416  0.00201704  0.07768324    -0.58800
O385        O  0.43975047  0.99889341  0.12904068    -0.51800
C386        C  0.40597679  0.00113105  0.11707831     0.71500
O387        O  0.39466581  0.49519576  0.43319140    -0.73400
O388        O  0.43932441  0.49670152  0.38164653    -0.53900
C389        C  0.40562067  0.99537473  0.39379124     0.77500
O390        O  0.49612497  0.89472845  0.07688590    -0.58500
O391        O  0.49718318  0.93963630  0.12840715    -0.51600
C392        C  0.49628222  0.90579554  0.11626714     0.74100
Zr393      Zr  0.99873747  0.92064397  0.50503104     2.54700
O394        O  0.45279917  0.87381611  0.49977083    -0.79100
O395        O  0.04957034  0.87610659  0.01148223    -0.92500
Zr396      Zr  0.42063143  0.49832739  0.50521778     2.64700
O397        O  0.37620541  0.94983351  0.50708054    -0.97500
O398        O  0.37297632  0.54654785  0.00203998    -0.79500
O399        O  0.45903577  0.95873417  0.46303911    -0.82900
O400        O  0.45887639  0.95885493  0.04717289    -2.17600
O401        O  0.09925989  0.99271229  0.07782349    -0.66300
O402        O  0.05433542  0.99546555  0.12911317    -0.50800
C403        C  0.08815790  0.49336599  0.11721957     0.72500
O404        O  0.99484031  0.59929438  0.43207333    -0.59200
O405        O  0.99601121  0.55412420  0.38080998    -0.51100
C406        C  0.99509359  0.58807074  0.39268192     0.74300
O407        O  0.49815264  0.59976281  0.07663941    -0.70600
O408        O  0.49739109  0.55509026  0.12821876    -0.49200
C409        C  0.99847576  0.58879053  0.11597270     0.75700
O410        O  0.09901157  0.50000296  0.43278667    -0.65900
O411        O  0.05441852  0.49702317  0.38134369    -0.53100
C412        C  0.08802802  0.49918811  0.39341856     0.74100
Zr413      Zr  0.07379091  0.99601922  0.00518902     2.77500
O414        O  0.11956929  0.54323044  0.50826661    -0.96600
O415        O  0.12051819  0.94678525  0.00230448    -0.77500
Zr416      Zr  0.49582568  0.57378528  0.00461035     2.70100
O417        O  0.04332548  0.61919635  0.00185164    -0.78700
O418        O  0.44633926  0.62019982  0.50694080    -0.97800
Zr419      Zr  0.99702198  0.49688824  0.42113225     2.21500
Zr420      Zr  0.49707285  0.99732924  0.08888636     2.11100
O421        O  0.03531887  0.53560480  0.04700443    -2.46500
O422        O  0.03533393  0.53522063  0.46277823    -0.78500
O423        O  0.03678443  0.95778377  0.04748142    -0.70700
O424        O  0.45738092  0.53661788  0.46266739    -2.31700
O425        O  0.03697290  0.95758816  0.46266202    -2.27900
O426        O  0.45761594  0.53695841  0.04734394    -0.72500
H427        H  0.44387057  0.94408557  0.06550001     0.79500
H428        H  0.44190893  0.55181174  0.44430052     0.80600
H429        H  0.05034971  0.55043127  0.06531327     0.82800
H430        H  0.05248471  0.94238089  0.44425965     0.80500
H431        H  0.38597119  0.56891316  0.49370358     0.43500
H432        H  0.43195704  0.61413753  0.03288863     0.42500
H433        H  0.06165234  0.60884391  0.48124143     0.42100
H434        H  0.11289866  0.55838848  0.03379153     0.40100
H435        H  0.11847754  0.93610782  0.97306602     0.43200
H436        H  0.07028441  0.88764075  0.49669007     0.38000
H437        H  0.43202329  0.88605396  0.48443282     0.44100
H438        H  0.38303291  0.93470036  0.03244743     0.40500
H439        H  0.14253331  0.52990437  0.01661337     0.45400
H440        H  0.04293035  0.85543316  0.49254821     0.44200
H441        H  0.35283168  0.96249683  0.51534063     0.44300
H442        H  0.45851092  0.64326261  0.01455619     0.44700
C443        C  0.50163880  0.78055234  0.23171324     0.03400
C444        C  0.50261014  0.78054878  0.27738174     0.03300
C445        C  0.50260978  0.74690678  0.29936903    -0.17200
C446        C  0.50155666  0.71316399  0.27760431     0.03400
C447        C  0.50176475  0.71314329  0.23197273     0.03300
C448        C  0.50187893  0.74674931  0.20999722    -0.17200
H449        H  0.50166523  0.74658042  0.17505045     0.05400
H450        H  0.50279739  0.74702406  0.33431621     0.05400
C451        C  0.28065392  0.99810162  0.23242575     0.03400
C452        C  0.28062393  0.99792048  0.27811586     0.03300
C453        C  0.24693683  0.99840749  0.30005481    -0.17200
C454        C  0.21327488  0.99812964  0.27821161     0.03400
C455        C  0.21328488  0.99696222  0.23255317     0.03300
C456        C  0.24696616  0.99728874  0.21057802    -0.17200
H457        H  0.24695712  0.99693504  0.17563772     0.05400
H458        H  0.24693245  0.99874861  0.33499942     0.05400
C459        C  0.11718713  0.99195003  0.15082584    -0.04300
C460        C  0.12047879  0.52110456  0.18049977    -0.01400
C461        C  0.15204309  0.52338559  0.20651423     0.03600
C462        C  0.17903705  0.99463928  0.20619201    -0.04300
C463        C  0.17453617  0.96425266  0.17821179    -0.01400
C464        C  0.14413408  0.96324718  0.15025785     0.03600
C465        C  0.09200610  0.54959432  0.18356873     0.38300
C466        C  0.20155896  0.93410116  0.17762535     0.38200
C467        C  0.14027700  0.93226832  0.12121651     0.36700
C468        C  0.15792513  0.55706341  0.23019094     0.36700
N469        N  0.13710160  0.90755163  0.09812470    -0.38100
N470        N  0.16178613  0.58471778  0.24783172    -0.38100
N471        N  0.22314688  0.91012052  0.17736549    -0.37600
N472        N  0.06937674  0.57230372  0.18734700    -0.37600
C473        C  0.17897611  0.99955615  0.30476565    -0.04300
C474        C  0.17172735  0.52996180  0.33250873    -0.01400
C475        C  0.14106020  0.53043805  0.36012456     0.03600
C476        C  0.11700570  0.50084453  0.36005610    -0.04300
C477        C  0.12315937  0.97134029  0.33115776    -0.01400
C478        C  0.15476128  0.96993948  0.30489874     0.03600
C479        C  0.19611483  0.56072335  0.33323595     0.38300
C480        C  0.09763063  0.94168809  0.32928074     0.38200
C481        C  0.16369173  0.93640526  0.28136098     0.36700
C482        C  0.13357513  0.56193531  0.38797572     0.36700
N483        N  0.17007281  0.90886885  0.26377993    -0.38100
N484        N  0.12720124  0.58704019  0.41000801    -0.38100
N485        N  0.07724857  0.91809373  0.32681244    -0.37600
N486        N  0.21549791  0.58528356  0.33382679    -0.37600
C487        C  0.37685659  0.00249374  0.15057894    -0.04300
C488        C  0.37329395  0.97321606  0.17985398    -0.01400
C489        C  0.34187563  0.97135805  0.20628106     0.03600
C490        C  0.31488439  0.00011502  0.20588186    -0.04300
C491        C  0.31932404  0.53019459  0.17762244    -0.01400
C492        C  0.35001089  0.53125829  0.15009227     0.03600
C493        C  0.40119404  0.94406280  0.18175401     0.38300
C494        C  0.29192105  0.55996153  0.17621575     0.38200
C495        C  0.35435768  0.56242846  0.12163996     0.36700
C496        C  0.33608720  0.93816595  0.23067924     0.36700
N497        N  0.35812247  0.58733241  0.09914838    -0.38100
N498        N  0.33208896  0.91102057  0.24914477    -0.38100
N499        N  0.26998469  0.58359711  0.17509305    -0.37600
N500        N  0.42335541  0.92076610  0.18420389    -0.37600
C501        C  0.37651470  0.99416219  0.36046793    -0.04300
C502        C  0.35193715  0.96497484  0.36034203    -0.01400
C503        C  0.32138800  0.96586419  0.33259216     0.03600
C504        C  0.31485843  0.99612784  0.30470449    -0.04300
C505        C  0.33940909  0.52541530  0.30508621    -0.01400
C506        C  0.37064366  0.52389728  0.33196947     0.03600
C507        C  0.35838124  0.93360973  0.38844109     0.38300
C508        C  0.33095357  0.55865791  0.28103104     0.38200
C509        C  0.39579589  0.55389138  0.33177793     0.36700
C510        C  0.29626397  0.93569645  0.33326205     0.36700
N511        N  0.41594613  0.57776338  0.33122176    -0.38100
N512        N  0.27612540  0.91176112  0.33357090    -0.38100
N513        N  0.32436994  0.58568500  0.26268636    -0.37600
N514        N  0.36359443  0.90845749  0.41057347    -0.37600
C515        C  0.50221372  0.67898497  0.20532589    -0.04300
C516        C  0.03128171  0.67229247  0.17573297    -0.01400
C517        C  0.03034700  0.64223595  0.14726135     0.03600
C518        C  0.50111137  0.61780631  0.14906802    -0.04300
C519        C  0.47311442  0.62329762  0.17988662    -0.01400
C520        C  0.47272051  0.65470315  0.20653710     0.03600
C521        C  0.06202481  0.69669040  0.17400643     0.38300
C522        C  0.44386310  0.59742419  0.18319278     0.38200
C523        C  0.44024475  0.66338787  0.23192170     0.36700
C524        C  0.06001236  0.63585454  0.11662879     0.36700
N525        N  0.41355676  0.66959864  0.25109016    -0.38100
N526        N  0.08361584  0.63044252  0.09228585    -0.38100
N527        N  0.42063086  0.57675223  0.18667997    -0.37600
N528        N  0.08639380  0.71625628  0.17266652    -0.37600
C529        C  0.49856679  0.67908715  0.30418949    -0.04300
C530        C  0.02572139  0.65053736  0.30246900    -0.01400
C531        C  0.02234184  0.61882958  0.32805608     0.03600
C532        C  0.99419650  0.61713103  0.35913272    -0.04300
C533        C  0.46705611  0.64561396  0.36105428    -0.01400
C534        C  0.46880033  0.67602461  0.33323595     0.03600
C535        C  0.05890116  0.65478329  0.27753117     0.38300
C536        C  0.43660219  0.64307458  0.39093817     0.38200
C537        C  0.43980750  0.70428960  0.33463672     0.36700
C538        C  0.04833192  0.58830739  0.32252781     0.36700
N539        N  0.41676017  0.72686183  0.33536941    -0.38100
N540        N  0.06884134  0.56397829  0.31654901    -0.38100
N541        N  0.41222444  0.64069496  0.41452583    -0.37400
N542        N  0.08604247  0.65748879  0.25868564    -0.37600
C543        C  0.49537129  0.87663052  0.14946231    -0.04300
C544        C  0.02361207  0.87295772  0.18028652    -0.01400
C545        C  0.02654902  0.84122748  0.20623770     0.03600
C546        C  0.49897132  0.81475513  0.20495096    -0.04300
C547        C  0.46945135  0.81968663  0.17554053    -0.01400
C548        C  0.46822778  0.84988920  0.14730566     0.03600
C549        C  0.05054559  0.90116974  0.18448807     0.38300
C550        C  0.44020080  0.79353488  0.17376207     0.38200
C551        C  0.43855441  0.85365281  0.11626742     0.36700
C552        C  0.05977735  0.83465571  0.23092267     0.36700
N553        N  0.41490175  0.85651954  0.09157125    -0.38100
N554        N  0.08704220  0.83022987  0.24946055    -0.38100
N555        N  0.41674378  0.77290519  0.17207412    -0.37600
N556        N  0.07187360  0.92370574  0.18890307    -0.37600
C557        C  0.50300598  0.87609540  0.36029008    -0.04300
C558        C  0.47499419  0.87255553  0.32937788    -0.01400
C559        C  0.47412850  0.84094734  0.30308626     0.03600
C560        C  0.50346154  0.81469067  0.30403398    -0.04300
C561        C  0.03276308  0.81952801  0.33319770    -0.01400
C562        C  0.03210365  0.84960651  0.36177767     0.03600
C563        C  0.44665591  0.90102963  0.32476633     0.38300
C564        C  0.06365396  0.79335437  0.33410249     0.38200
C565        C  0.06221903  0.85392569  0.39174569     0.36700
C566        C  0.44144670  0.83411053  0.27819034     0.36700
N567        N  0.08654753  0.85737427  0.41514345    -0.38100
N568        N  0.41481155  0.82891733  0.25923805    -0.38100
N569        N  0.08827203  0.77252918  0.33467882    -0.37600
N570        N  0.42428289  0.92379883  0.31968010    -0.37600
O571        O  0.00119522  0.89427596  0.93301156    -0.74200
O572        O  0.99837553  0.93906434  0.88160957    -0.53100
C573        C  0.50053054  0.90524943  0.89365546     0.79500
O574        O  0.39497406  0.00201707  0.57768320    -0.58800
O575        O  0.43975041  0.99889341  0.62904062    -0.51800
C576        C  0.40597674  0.00113111  0.61707827     0.71500
O577        O  0.39466592  0.49519570  0.93319126    -0.73400
O578        O  0.43932448  0.49670159  0.88164635    -0.53900
C579        C  0.40562080  0.99537470  0.89379127     0.77500
O580        O  0.49612506  0.89472842  0.57688585    -0.58500
O581        O  0.49718312  0.93963622  0.62840712    -0.51600
C582        C  0.49628226  0.90579548  0.61626708     0.74100
Zr583      Zr  0.99873755  0.92064389  0.00503117     2.54700
O584        O  0.45279859  0.87381644  0.99977005    -0.79100
O585        O  0.04957026  0.87610678  0.51148214    -0.92500
Zr586      Zr  0.42063145  0.49832756  0.00521767     2.64700
O587        O  0.37620474  0.94983399  0.00708091    -0.97500
O588        O  0.37297781  0.54654966  0.50203951    -0.79500
O589        O  0.45903597  0.95873405  0.96303902    -0.82900
O590        O  0.45887621  0.95885511  0.54717301    -2.17600
O591        O  0.09925980  0.99271244  0.57782371    -0.66300
O592        O  0.05433534  0.99546545  0.62911344    -0.50800
C593        C  0.08815806  0.49336596  0.61721957     0.72500
O594        O  0.99484045  0.59929451  0.93207329    -0.59200
O595        O  0.99601117  0.55412426  0.88081006    -0.51100
C596        C  0.99509359  0.58807079  0.89268194     0.74300
O597        O  0.49815260  0.59976283  0.57663943    -0.70600
O598        O  0.49739094  0.55509032  0.62821866    -0.49200
C599        C  0.99847563  0.58879058  0.61597270     0.75700
O600        O  0.09901148  0.50000299  0.93278648    -0.65900
O601        O  0.05441840  0.49702303  0.88134355    -0.53100
C602        C  0.08802793  0.49918811  0.89341840     0.74100
Zr603      Zr  0.07379094  0.99601926  0.50518918     2.77500
O604        O  0.11956902  0.54323056  0.00826634    -0.96600
O605        O  0.12051785  0.94678472  0.50230292    -0.77500
Zr606      Zr  0.49582545  0.57378526  0.50461066     2.70100
O607        O  0.04332659  0.61919537  0.50185079    -0.78700
O608        O  0.44633863  0.62019859  0.00694032    -0.97800
Zr609      Zr  0.99702193  0.49688830  0.92113230     2.21500
Zr610      Zr  0.49707288  0.99732925  0.58888653     2.11100
O611        O  0.03531887  0.53560488  0.54700473    -2.46500
O612        O  0.03533404  0.53522056  0.96277826    -0.78500
O613        O  0.03678436  0.95778380  0.54748152    -0.70700
O614        O  0.45738021  0.53661875  0.96266627    -2.31700
O615        O  0.03697336  0.95758753  0.96266139    -2.27900
O616        O  0.45761590  0.53695829  0.54734409    -0.72500
H617        H  0.44387012  0.94408566  0.56549972     0.79500
H618        H  0.44190947  0.55181164  0.94430068     0.80600
H619        H  0.05034957  0.55043108  0.56531393     0.82800
H620        H  0.05248453  0.94238093  0.94425937     0.80500
H621        H  0.38597021  0.56891232  0.99370837     0.43500
H622        H  0.43195673  0.61413839  0.53288862     0.42500
H623        H  0.06165140  0.60884511  0.98124222     0.42100
H624        H  0.11289933  0.55838794  0.53379243     0.40100
H625        H  0.11847698  0.93610788  0.47306426     0.43200
H626        H  0.07028466  0.88764046  0.99669033     0.38000
H627        H  0.43202237  0.88605492  0.98443348     0.44100
H628        H  0.38303300  0.93470048  0.53244753     0.40500
H629        H  0.14253355  0.52990399  0.51661284     0.45400
H630        H  0.04293062  0.85543284  0.99254841     0.44200
H631        H  0.35283130  0.96249724  0.01534184     0.44300
H632        H  0.45851144  0.64326348  0.51455762     0.44700
C633        C  0.50163883  0.78055242  0.73171361     0.03400
C634        C  0.50261018  0.78054879  0.77738190     0.03300
C635        C  0.50260978  0.74690674  0.79936915    -0.17200
C636        C  0.50155664  0.71316395  0.77760443     0.03400
C637        C  0.50176469  0.71314324  0.73197307     0.03300
C638        C  0.50187896  0.74674939  0.70999804    -0.17200
H639        H  0.50166567  0.74658065  0.67505127     0.05400
H640        H  0.50279748  0.74702400  0.83431626     0.05400
C641        C  0.28065390  0.99810171  0.73242592     0.03400
C642        C  0.28062389  0.99792041  0.77811626     0.03300
C643        C  0.24693686  0.99840745  0.80005563    -0.17200
C644        C  0.21327501  0.99812971  0.77821196     0.03400
C645        C  0.21328501  0.99696234  0.73255327     0.03300
C646        C  0.24696625  0.99728886  0.71057807    -0.17200
H647        H  0.24695722  0.99693554  0.67563771     0.05400
H648        H  0.24693251  0.99874801  0.83500025     0.05400
C649        C  0.11718712  0.99195016  0.65082589    -0.04300
C650        C  0.12047881  0.52110446  0.68049987    -0.01400
C651        C  0.15204310  0.52338550  0.70651433     0.03600
C652        C  0.17903716  0.99463945  0.70619198    -0.04300
C653        C  0.17453626  0.96425283  0.67821169    -0.01400
C654        C  0.14413408  0.96324730  0.65025787     0.03600
C655        C  0.09200613  0.54959423  0.68356876     0.38300
C656        C  0.20155911  0.93410138  0.67762509     0.38200
C657        C  0.14027694  0.93226843  0.62121649     0.36700
C658        C  0.15792516  0.55706329  0.73019116     0.36700
N659        N  0.13710149  0.90755169  0.59812475    -0.38100
N660        N  0.16178599  0.58471771  0.74783192    -0.38100
N661        N  0.22314698  0.91012070  0.67736508    -0.37600
N662        N  0.06937686  0.57230371  0.68734709    -0.37600
C663        C  0.17897614  0.99955624  0.80476569    -0.04300
C664        C  0.17172741  0.52996167  0.83250877    -0.01400
C665        C  0.14106028  0.53043790  0.86012462     0.03600
C666        C  0.11700569  0.50084446  0.86005603    -0.04300
C667        C  0.12315941  0.97134034  0.83115771    -0.01400
C668        C  0.15476131  0.96993956  0.80489869     0.03600
C669        C  0.19611492  0.56072321  0.83323604     0.38300
C670        C  0.09763069  0.94168814  0.82928065     0.38200
C671        C  0.16369169  0.93640538  0.78136085     0.36700
C672        C  0.13357513  0.56193525  0.88797560     0.36700
N673        N  0.17007272  0.90886901  0.76377970    -0.38100
N674        N  0.12720134  0.58704010  0.91000796    -0.38100
N675        N  0.07724859  0.91809383  0.82681225    -0.37600
N676        N  0.21549800  0.58528343  0.83382694    -0.37600
C677        C  0.37685660  0.00249373  0.65057891    -0.04300
C678        C  0.37329393  0.97321598  0.67985390    -0.01400
C679        C  0.34187567  0.97135807  0.70628116     0.03600
C680        C  0.31488439  0.00011501  0.70588194    -0.04300
C681        C  0.31932401  0.53019466  0.67762244    -0.01400
C682        C  0.35001084  0.53125832  0.65009218     0.03600
C683        C  0.40119410  0.94406278  0.68175404     0.38300
C684        C  0.29192094  0.55996157  0.67621569     0.38200
C685        C  0.35435786  0.56242860  0.62164012     0.36700
C686        C  0.33608706  0.93816599  0.73067928     0.36700
N687        N  0.35812254  0.58733266  0.59914868    -0.38100
N688        N  0.33208887  0.91102065  0.74914491    -0.38100
N689        N  0.26998459  0.58359717  0.67509285    -0.37600
N690        N  0.42335542  0.92076603  0.68420402    -0.37600
C691        C  0.37651481  0.99416214  0.86046795    -0.04300
C692        C  0.35193716  0.96497483  0.86034215    -0.01400
C693        C  0.32138804  0.96586414  0.83259223     0.03600
C694        C  0.31485845  0.99612779  0.80470460    -0.04300
C695        C  0.33940914  0.52541535  0.80508607    -0.01400
C696        C  0.37064374  0.52389730  0.83196937     0.03600
C697        C  0.35838126  0.93360971  0.88844121     0.38300
C698        C  0.33095356  0.55865798  0.78103094     0.38200
C699        C  0.39579601  0.55389138  0.83177784     0.36700
C700        C  0.29626397  0.93569643  0.83326214     0.36700
N701        N  0.41594631  0.57776334  0.83122180    -0.38100
N702        N  0.27612539  0.91176110  0.83357105    -0.38100
N703        N  0.32436988  0.58568507  0.76268626    -0.37600
N704        N  0.36359456  0.90845756  0.91057371    -0.37600
C705        C  0.50221375  0.67898494  0.70532601    -0.04300
C706        C  0.03128154  0.67229252  0.67573294    -0.01400
C707        C  0.03034681  0.64223599  0.64726131     0.03600
C708        C  0.50111133  0.61780631  0.64906805    -0.04300
C709        C  0.47311437  0.62329763  0.67988664    -0.01400
C710        C  0.47272049  0.65470316  0.70653709     0.03600
C711        C  0.06202473  0.69669040  0.67400638     0.38300
C712        C  0.44386312  0.59742409  0.68319300     0.38200
C713        C  0.44024479  0.66338785  0.73192178     0.36700
C714        C  0.06001221  0.63585450  0.61662879     0.36700
N715        N  0.41355683  0.66959852  0.75109029    -0.38100
N716        N  0.08361571  0.63044250  0.59228586    -0.38100
N717        N  0.42063095  0.57675207  0.68668038    -0.37600
N718        N  0.08639377  0.71625626  0.67266644    -0.37600
C719        C  0.49856679  0.67908715  0.80418953    -0.04300
C720        C  0.02572128  0.65053728  0.80246902    -0.01400
C721        C  0.02234169  0.61882944  0.82805600     0.03600
C722        C  0.99419645  0.61713100  0.85913270    -0.04300
C723        C  0.46705611  0.64561393  0.86105421    -0.01400
C724        C  0.46880035  0.67602464  0.83323598     0.03600
C725        C  0.05890102  0.65478318  0.77753118     0.38300
C726        C  0.43660224  0.64307454  0.89093809     0.38200
C727        C  0.43980746  0.70428958  0.83463660     0.36700
C728        C  0.04833185  0.58830730  0.82252788     0.36700
N729        N  0.41676007  0.72686175  0.83536932    -0.38100
N730        N  0.06884120  0.56397814  0.81654905    -0.38100
N731        N  0.41222450  0.64069487  0.91452571    -0.37400
N732        N  0.08604235  0.65748867  0.75868571    -0.37600
C733        C  0.49537132  0.87663051  0.64946224    -0.04300
C734        C  0.02361205  0.87295771  0.68028655    -0.01400
C735        C  0.02654894  0.84122751  0.70623777     0.03600
C736        C  0.49897136  0.81475513  0.70495094    -0.04300
C737        C  0.46945140  0.81968661  0.67554045    -0.01400
C738        C  0.46822784  0.84988917  0.64730559     0.03600
C739        C  0.05054548  0.90116976  0.68448821     0.38300
C740        C  0.44020075  0.79353495  0.67376207     0.38200
C741        C  0.43855445  0.85365269  0.61626744     0.36700
C742        C  0.05977729  0.83465571  0.73092264     0.36700
N743        N  0.41490172  0.85651949  0.59157138    -0.38100
N744        N  0.08704208  0.83022979  0.74946058    -0.38100
N745        N  0.41674364  0.77290533  0.67207428    -0.37600
N746        N  0.07187338  0.92370585  0.68890324    -0.37600
C747        C  0.50300599  0.87609536  0.86029006    -0.04300
C748        C  0.47499419  0.87255544  0.82937785    -0.01400
C749        C  0.47412856  0.84094732  0.80308617     0.03600
C750        C  0.50346154  0.81469058  0.80403408    -0.04300
C751        C  0.03276306  0.81952791  0.83319771    -0.01400
C752        C  0.03210363  0.84960638  0.86177769     0.03600
C753        C  0.44665593  0.90102957  0.82476616     0.38300
C754        C  0.06365397  0.79335432  0.83410234     0.38200
C755        C  0.06221907  0.85392561  0.89174553     0.36700
C756        C  0.44144669  0.83411056  0.77819028     0.36700
N757        N  0.08654757  0.85737414  0.91514328    -0.38100
N758        N  0.41481160  0.82891728  0.75923790    -0.38100
N759        N  0.08827201  0.77252908  0.83467872    -0.37600
N760        N  0.42428297  0.92379884  0.81968000    -0.37600
O761        O  0.50119471  0.39427610  0.43301150    -0.74200
O762        O  0.49837530  0.43906453  0.38160953    -0.53100
C763        C  0.00053013  0.40524953  0.39365549     0.79500
O764        O  0.89497445  0.50201707  0.07768365    -0.58800
O765        O  0.93975080  0.49889307  0.12904101    -0.51800
C766        C  0.90597711  0.50113070  0.11707870     0.71500
O767        O  0.89466577  0.99519583  0.43319109    -0.73400
O768        O  0.93932447  0.99670123  0.38164628    -0.53900
C769        C  0.90562062  0.49537483  0.39379160     0.77500
O770        O  0.99612459  0.39472844  0.07688564    -0.58500
O771        O  0.99718337  0.43963619  0.12840690    -0.51600
C772        C  0.99628220  0.40579548  0.11626686     0.74100
Zr773      Zr  0.49873736  0.42064400  0.50503123     2.54700
O774        O  0.95279994  0.37381530  0.49977093    -0.79100
O775        O  0.54957013  0.37610728  0.01148319    -0.92500
Zr776      Zr  0.92063140  0.99832716  0.50521751     2.64700
O777        O  0.87620558  0.44983444  0.50708033    -0.97500
O778        O  0.87297617  0.04654778  0.00204135    -0.79500
O779        O  0.95903573  0.45873430  0.46303924    -0.82900
O780        O  0.95887574  0.45885487  0.04717343    -2.17600
O781        O  0.59925985  0.49271224  0.07782355    -0.66300
O782        O  0.55433539  0.49546506  0.12911332    -0.50800
C783        C  0.58815785  0.99336614  0.11721959     0.72500
O784        O  0.49483998  0.09929451  0.43207323    -0.59200
O785        O  0.49601096  0.05412424  0.38081001    -0.51100
C786        C  0.49509323  0.08807079  0.39268187     0.74300
O787        O  0.99815237  0.09976282  0.07663939    -0.70600
O788        O  0.99739031  0.05509034  0.12821867    -0.49200
C789        C  0.49847512  0.08879056  0.11597269     0.75700
O790        O  0.59901139  0.00000311  0.43278663    -0.65900
O791        O  0.55441844  0.99702338  0.38134356    -0.53100
C792        C  0.58802792  0.99918836  0.39341850     0.74100
Zr793      Zr  0.57379095  0.49601874  0.00518881     2.77500
O794        O  0.61956979  0.04322984  0.50826544    -0.96600
O795        O  0.62051783  0.44678370  0.00229959    -0.77500
Zr796      Zr  0.99582518  0.07378529  0.00461059     2.70100
O797        O  0.54332619  0.11919539  0.00185179    -0.78700
O798        O  0.94633870  0.12019927  0.50694173    -0.97800
Zr799      Zr  0.49702198  0.99688818  0.42113214     2.21500
Zr800      Zr  0.99707296  0.49732921  0.08888633     2.11100
O801        O  0.53531872  0.03560481  0.04700459    -2.46500
O802        O  0.53533382  0.03522055  0.46277823    -0.78500
O803        O  0.53678441  0.45778370  0.04748137    -0.70700
O804        O  0.95737988  0.03661865  0.46266629    -2.31700
O805        O  0.53697241  0.45758845  0.46266246    -2.27900
O806        O  0.95761581  0.03695813  0.04734388    -0.72500
H807        H  0.94387023  0.44408614  0.06549979     0.79500
H808        H  0.94190888  0.05181148  0.44430076     0.80600
H809        H  0.55034947  0.05043104  0.06531364     0.82800
H810        H  0.55248439  0.44238088  0.44425889     0.80500
H811        H  0.88596435  0.06890661  0.49368852     0.43500
H812        H  0.93195387  0.11413525  0.03288869     0.42500
H813        H  0.56165515  0.10884012  0.48124603     0.42100
H814        H  0.61290326  0.05838317  0.03379813     0.40100
H815        H  0.61847662  0.43610654  0.97306133     0.43200
H816        H  0.57028534  0.38764283  0.49669022     0.38000
H817        H  0.93202226  0.38605391  0.48443697     0.44100
H818        H  0.88303385  0.43470063  0.03244535     0.40500
H819        H  0.64253404  0.02990381  0.01660081     0.45400
H820        H  0.54293211  0.35543430  0.49254947     0.44200
H821        H  0.85283291  0.46249795  0.51534498     0.44300
H822        H  0.95850962  0.14326258  0.01456427     0.44700
C823        C  0.00163913  0.28055245  0.23171332     0.03400
C824        C  0.00261007  0.28054902  0.27738161     0.03300
C825        C  0.00260956  0.24690705  0.29936906    -0.17200
C826        C  0.00155637  0.21316415  0.27760446     0.03400
C827        C  0.00176459  0.21314329  0.23197309     0.03300
C828        C  0.00187917  0.24674931  0.20999793    -0.17200
H829        H  0.00166547  0.24658030  0.17505116     0.05400
H830        H  0.00279710  0.24702447  0.33431618     0.05400
C831        C  0.78065404  0.49810170  0.23242576     0.03400
C832        C  0.78062396  0.49792064  0.27811587     0.03300
C833        C  0.74693683  0.49840747  0.30005479    -0.17200
C834        C  0.71327493  0.49812949  0.27821155     0.03400
C835        C  0.71328499  0.49696208  0.23255308     0.03300
C836        C  0.74696632  0.49728872  0.21057796    -0.17200
H837        H  0.74695725  0.49693508  0.17563767     0.05400
H838        H  0.74693242  0.49874856  0.33499941     0.05400
C839        C  0.61718718  0.49194974  0.15082576    -0.04300
C840        C  0.62047862  0.02110468  0.18049998    -0.01400
C841        C  0.65204298  0.02338577  0.20651441     0.03600
C842        C  0.67903722  0.49463913  0.20619180    -0.04300
C843        C  0.67453643  0.46425257  0.17821142    -0.01400
C844        C  0.64413425  0.46324702  0.15025759     0.03600
C845        C  0.59200600  0.04959449  0.18356885     0.38300
C846        C  0.70155937  0.43410123  0.17762472     0.38200
C847        C  0.64027706  0.43226811  0.12121634     0.36700
C848        C  0.65792529  0.05706374  0.23019080     0.36700
N849        N  0.63710154  0.40755130  0.09812473    -0.38100
N850        N  0.66178649  0.08471826  0.24783122    -0.38100
N851        N  0.72314727  0.41012057  0.17736461    -0.37600
N852        N  0.56937667  0.07230393  0.18734695    -0.37600
C853        C  0.67897617  0.49955580  0.30476563    -0.04300
C854        C  0.67172741  0.02996207  0.33250895    -0.01400
C855        C  0.64106031  0.03043826  0.36012488     0.03600
C856        C  0.61700563  0.00084488  0.36005610    -0.04300
C857        C  0.62315968  0.47133967  0.33115815    -0.01400
C858        C  0.65476148  0.46993902  0.30489887     0.03600
C859        C  0.69611503  0.06072348  0.33323634     0.38300
C860        C  0.59763120  0.44168727  0.32928164     0.38200
C861        C  0.66369205  0.43640487  0.28136108     0.36700
C862        C  0.63357525  0.06193538  0.38797630     0.36700
N863        N  0.67007302  0.40886854  0.26377984    -0.38100
N864        N  0.62720124  0.08703997  0.41000899    -0.38100
N865        N  0.57724940  0.41809268  0.32681360    -0.37600
N866        N  0.71549826  0.08528358  0.33382713    -0.37600
C867        C  0.87685695  0.50249337  0.15057933    -0.04300
C868        C  0.87329412  0.47321566  0.17985432    -0.01400
C869        C  0.84187572  0.47135782  0.20628131     0.03600
C870        C  0.81488460  0.50011491  0.20588202    -0.04300
C871        C  0.81932366  0.03019476  0.17762220    -0.01400
C872        C  0.85001047  0.03125849  0.15009190     0.03600
C873        C  0.90119408  0.44406230  0.18175440     0.38300
C874        C  0.79192055  0.05996165  0.17621562     0.38200
C875        C  0.85435715  0.06242864  0.12163966     0.36700
C876        C  0.83608701  0.43816579  0.23067949     0.36700
N877        N  0.85812161  0.08733274  0.09914827    -0.38100
N878        N  0.83208863  0.41102046  0.24914504    -0.38100
N879        N  0.76998412  0.08359719  0.17509298    -0.37600
N880        N  0.92335522  0.42076540  0.18420450    -0.37600
C881        C  0.87651459  0.49416240  0.36046828    -0.04300
C882        C  0.85193699  0.46497509  0.36034230    -0.01400
C883        C  0.82138794  0.46586440  0.33259228     0.03600
C884        C  0.81485842  0.49612806  0.30470457    -0.04300
C885        C  0.83940896  0.02541511  0.30508616    -0.01400
C886        C  0.87064363  0.02389707  0.33196930     0.03600
C887        C  0.85838109  0.43360993  0.38844124     0.38300
C888        C  0.83095304  0.05865787  0.28103142     0.38200
C889        C  0.89579591  0.05389116  0.33177772     0.36700
C890        C  0.79626403  0.43569655  0.33326198     0.36700
N891        N  0.91594624  0.07776310  0.33122164    -0.38100
N892        N  0.77612558  0.41176110  0.33357031    -0.38100
N893        N  0.82436883  0.08568497  0.26268700    -0.37600
N894        N  0.86359432  0.40845767  0.41057359    -0.37600
C895        C  0.00221342  0.17898497  0.20532601    -0.04300
C896        C  0.53128128  0.17229234  0.17573310    -0.01400
C897        C  0.53034638  0.14223593  0.14726128     0.03600
C898        C  0.00111076  0.11780639  0.14906794    -0.04300
C899        C  0.97311391  0.12329775  0.17988664    -0.01400
C900        C  0.97272013  0.15470323  0.20653717     0.03600
C901        C  0.56202459  0.19669009  0.17400679     0.38300
C902        C  0.94386271  0.09742420  0.18319310     0.38200
C903        C  0.94024458  0.16338777  0.23192215     0.36700
C904        C  0.56001186  0.13585425  0.11662889     0.36700
N905        N  0.91355674  0.16959831  0.25109095    -0.38100
N906        N  0.58361533  0.13044204  0.09228598    -0.38100
N907        N  0.92063063  0.07675211  0.18668057    -0.37600
N908        N  0.58639385  0.21625569  0.17266713    -0.37600
C909        C  0.99856651  0.17908736  0.30418957    -0.04300
C910        C  0.52572112  0.15053739  0.30246908    -0.01400
C911        C  0.52234151  0.11882957  0.32805609     0.03600
C912        C  0.49419613  0.11713102  0.35913261    -0.04300
C913        C  0.96705562  0.14561406  0.36105405    -0.01400
C914        C  0.96880000  0.17602486  0.33323592     0.03600
C915        C  0.55890094  0.15478326  0.27753140     0.38300
C916        C  0.93660168  0.14307470  0.39093788     0.38200
C917        C  0.93980725  0.20428997  0.33463663     0.36700
C918        C  0.54833181  0.08830751  0.32252816     0.36700
N919        N  0.91676001  0.22686232  0.33536920    -0.38100
N920        N  0.56884147  0.06397855  0.31654961    -0.38100
N921        N  0.91222393  0.14069492  0.41452549    -0.37400
N922        N  0.58604237  0.15748856  0.25868608    -0.37600
C923        C  0.99537138  0.37663048  0.14946199    -0.04300
C924        C  0.52361188  0.37295783  0.18028629    -0.01400
C925        C  0.52654900  0.34122767  0.20623756     0.03600
C926        C  0.99897174  0.31475505  0.20495056    -0.04300
C927        C  0.96945184  0.31968632  0.17553998    -0.01400
C928        C  0.96822805  0.34988900  0.14730532     0.03600
C929        C  0.55054512  0.40117007  0.18448804     0.38300
C930        C  0.94020138  0.29353442  0.17376152     0.38200
C931        C  0.93855459  0.35365250  0.11626728     0.36700
C932        C  0.55977734  0.33465622  0.23092261     0.36700
N933        N  0.91490166  0.35651931  0.09157150    -0.38100
N934        N  0.58704218  0.33023080  0.24946062    -0.38100
N935        N  0.91674445  0.27290460  0.17207367    -0.37600
N936        N  0.57187293  0.42370623  0.18890312    -0.37600
C937        C  0.00300562  0.37609546  0.36029001    -0.04300
C938        C  0.97499407  0.37255573  0.32937745    -0.01400
C939        C  0.97412853  0.34094766  0.30308563     0.03600
C940        C  0.00346143  0.31469088  0.30403364    -0.04300
C941        C  0.53276277  0.31952808  0.33319759    -0.01400
C942        C  0.53210318  0.34960646  0.36177777     0.03600
C943        C  0.94665594  0.40102992  0.32476560     0.38300
C944        C  0.56365369  0.29335444  0.33410219     0.38200
C945        C  0.56221843  0.35392565  0.39174595     0.36700
C946        C  0.94144695  0.33411104  0.27818925     0.36700
N947        N  0.58654689  0.35737411  0.41514380    -0.38100
N948        N  0.91481200  0.32891793  0.25923653    -0.38100
N949        N  0.58827172  0.27252918  0.33467837    -0.37600
N950        N  0.92428299  0.42379915  0.31967923    -0.37600
O951        O  0.50119459  0.39427615  0.93301143    -0.74200
O952        O  0.49837535  0.43906451  0.88160947    -0.53100
C953        C  0.00053005  0.40524954  0.89365551     0.79500
O954        O  0.89497430  0.50201693  0.57768353    -0.58800
O955        O  0.93975074  0.49889312  0.62904087    -0.51800
C956        C  0.90597704  0.50113075  0.61707859     0.71500
O957        O  0.89466592  0.99519572  0.93319120    -0.73400
O958        O  0.93932462  0.99670115  0.88164636    -0.53900
C959        C  0.90562072  0.49537486  0.89379141     0.77500
O960        O  0.99612462  0.39472857  0.57688580    -0.58500
O961        O  0.99718319  0.43963634  0.62840714    -0.51600
C962        C  0.99628214  0.40579560  0.61626704     0.74100
Zr963      Zr  0.49873726  0.42064405  0.00503104     2.54700
O964        O  0.95279909  0.37381590  0.99977037    -0.79100
O965        O  0.54957179  0.37610871  0.51148276    -0.92500
Zr966      Zr  0.92063151  0.99832713  0.00521766     2.64700
O967        O  0.87620473  0.44983507  0.00708015    -0.97500
O968        O  0.87297441  0.04654549  0.50204195    -0.79500
O969        O  0.95903559  0.45873439  0.96303929    -0.82900
O970        O  0.95887677  0.45885558  0.54717252    -2.17600
O971        O  0.59925990  0.49271215  0.57782355    -0.66300
O972        O  0.55433550  0.49546513  0.62911332    -0.50800
C973        C  0.58815784  0.99336617  0.61721973     0.72500
O974        O  0.49483998  0.09929456  0.93207322    -0.59200
O975        O  0.49601110  0.05412429  0.88080992    -0.51100
C976        C  0.49509328  0.08807084  0.89268182     0.74300
O977        O  0.99815234  0.09976269  0.57663939    -0.70600
O978        O  0.99739053  0.05509038  0.62821881    -0.49200
C979        C  0.49847521  0.08879053  0.61597266     0.75700
O980        O  0.59901147  0.00000300  0.93278657    -0.65900
O981        O  0.55441851  0.99702339  0.88134349    -0.53100
C982        C  0.58802798  0.99918835  0.89341846     0.74100
Zr983      Zr  0.57379097  0.49601926  0.50518917     2.77500
O984        O  0.61956719  0.04323191  0.00826595    -0.96600
O985        O  0.62051814  0.44678503  0.50230297    -0.77500
Zr986      Zr  0.99582520  0.07378516  0.50461048     2.70100
O987        O  0.54332687  0.11919478  0.50185018    -0.78700
O988        O  0.94633801  0.12019914  0.00694335    -0.97800
Zr989      Zr  0.49702217  0.99688813  0.92113209     2.21500
Zr990      Zr  0.99707310  0.49732930  0.58888652     2.11100
O991        O  0.53531864  0.03560490  0.54700445    -2.46500
O992        O  0.53533387  0.03522057  0.96277821    -0.78500
O993        O  0.53678441  0.45778372  0.54748148    -0.70700
O994        O  0.95738093  0.03661773  0.96266714    -2.31700
O995        O  0.53697276  0.45758791  0.96266190    -2.27900
O996        O  0.95761579  0.03695814  0.54734382    -0.72500
H997        H  0.94387025  0.44408557  0.56549999     0.79500
H998        H  0.94190904  0.05181147  0.94430000     0.80600
H999        H  0.55034940  0.05043164  0.56531306     0.82800
H1000       H  0.55248443  0.44238048  0.94425956     0.80500
H1001       H  0.88596596  0.06890821  0.99368563     0.43500
H1002       H  0.93195437  0.11413501  0.53288703     0.42500
H1003       H  0.56165493  0.10884087  0.98124796     0.42100
H1004       H  0.61290402  0.05838337  0.53379623     0.40100
H1005       H  0.61847699  0.43610771  0.47306457     0.43200
H1006       H  0.57028456  0.38764160  0.99669177     0.38000
H1007       H  0.93202162  0.38605446  0.98443609     0.44100
H1008       H  0.88303505  0.43469994  0.53244498     0.40500
H1009       H  0.64253543  0.02990246  0.51660342     0.45400
H1010       H  0.54293110  0.35543381  0.99254894     0.44200
H1011       H  0.85283211  0.46249857  0.01534394     0.44300
H1012       H  0.95851012  0.14326243  0.51456310     0.44700
C1013       C  0.00163923  0.28055235  0.73171296     0.03400
C1014       C  0.00261014  0.28054893  0.77738146     0.03300
C1015       C  0.00260954  0.24690702  0.79936893    -0.17200
C1016       C  0.00155642  0.21316414  0.77760429     0.03400
C1017       C  0.00176453  0.21314331  0.73197269     0.03300
C1018       C  0.00187924  0.24674928  0.70999715    -0.17200
H1019       H  0.00166560  0.24658037  0.67505039     0.05400
H1020       H  0.00279712  0.24702453  0.83431609     0.05400
C1021       C  0.78065393  0.49810165  0.73242537     0.03400
C1022       C  0.78062394  0.49792062  0.77811568     0.03300
C1023       C  0.74693688  0.49840748  0.80005463    -0.17200
C1024       C  0.71327502  0.49812936  0.77821138     0.03400
C1025       C  0.71328502  0.49696202  0.73255269     0.03300
C1026       C  0.74696628  0.49728862  0.71057709    -0.17200
H1027       H  0.74695732  0.49693485  0.67563682     0.05400
H1028       H  0.74693244  0.49874818  0.83499930     0.05400
C1029       C  0.61718721  0.49194979  0.65082578    -0.04300
C1030       C  0.62047868  0.02110472  0.68049996    -0.01400
C1031       C  0.65204304  0.02338587  0.70651432     0.03600
C1032       C  0.67903714  0.49463905  0.70619185    -0.04300
C1033       C  0.67453635  0.46425251  0.67821150    -0.01400
C1034       C  0.64413425  0.46324700  0.65025766     0.03600
C1035       C  0.59200602  0.04959448  0.68356890     0.38300
C1036       C  0.70155924  0.43410109  0.67762496     0.38200
C1037       C  0.64027714  0.43226808  0.62121641     0.36700
C1038       C  0.65792538  0.05706389  0.73019067     0.36700
N1039       N  0.63710159  0.40755136  0.59812467    -0.38100
N1040       N  0.66178663  0.08471843  0.74783105    -0.38100
N1041       N  0.72314713  0.41012042  0.67736498    -0.37600
N1042       N  0.56937670  0.07230390  0.68734713    -0.37600
C1043       C  0.67897627  0.49955566  0.80476565    -0.04300
C1044       C  0.67172745  0.02996208  0.83250901    -0.01400
C1045       C  0.64106036  0.03043826  0.86012490     0.03600
C1046       C  0.61700570  0.00084487  0.86005611    -0.04300
C1047       C  0.62315975  0.47133957  0.83115820    -0.01400
C1048       C  0.65476160  0.46993889  0.80489897     0.03600
C1049       C  0.69611497  0.06072358  0.83323629     0.38300
C1050       C  0.59763128  0.44168712  0.82928176     0.38200
C1051       C  0.66369212  0.43640480  0.78136107     0.36700
C1052       C  0.63357533  0.06193535  0.88797636     0.36700
N1053       N  0.67007310  0.40886847  0.76377983    -0.38100
N1054       N  0.62720138  0.08703987  0.91000916    -0.38100
N1055       N  0.57724948  0.41809252  0.82681374    -0.37600
N1056       N  0.71549820  0.08528368  0.83382728    -0.37600
C1057       C  0.87685689  0.50249342  0.65057923    -0.04300
C1058       C  0.87329407  0.47321566  0.67985415    -0.01400
C1059       C  0.84187568  0.47135782  0.70628121     0.03600
C1060       C  0.81488452  0.50011487  0.70588187    -0.04300
C1061       C  0.81932370  0.03019475  0.67762234    -0.01400
C1062       C  0.85001045  0.03125847  0.65009197     0.03600
C1063       C  0.90119406  0.44406223  0.68175417     0.38300
C1064       C  0.79192063  0.05996168  0.67621578     0.38200
C1065       C  0.85435707  0.06242853  0.62163956     0.36700
C1066       C  0.83608699  0.43816575  0.73067938     0.36700
N1067       N  0.85812141  0.08733249  0.59914791    -0.38100
N1068       N  0.83208874  0.41102035  0.74914486    -0.38100
N1069       N  0.76998416  0.08359718  0.67509309    -0.37600
N1070       N  0.92335512  0.42076523  0.68420431    -0.37600
C1071       C  0.87651472  0.49416242  0.86046808    -0.04300
C1072       C  0.85193711  0.46497509  0.86034208    -0.01400
C1073       C  0.82138803  0.46586441  0.83259206     0.03600
C1074       C  0.81485851  0.49612802  0.80470436    -0.04300
C1075       C  0.83940903  0.02541505  0.80508623    -0.01400
C1076       C  0.87064369  0.02389698  0.83196942     0.03600
C1077       C  0.85838117  0.43360996  0.88844102     0.38300
C1078       C  0.83095321  0.05865776  0.78103134     0.38200
C1079       C  0.89579603  0.05389098  0.83177784     0.36700
C1080       C  0.79626402  0.43569664  0.83326175     0.36700
N1081       N  0.91594643  0.07776285  0.83122179    -0.38100
N1082       N  0.77612553  0.41176123  0.83357012    -0.38100
N1083       N  0.82436923  0.08568490  0.76268688    -0.37600
N1084       N  0.86359443  0.40845776  0.91057341    -0.37600
C1085       C  0.00221347  0.17898493  0.70532589    -0.04300
C1086       C  0.53128137  0.17229230  0.67573310    -0.01400
C1087       C  0.53034648  0.14223589  0.64726135     0.03600
C1088       C  0.00111092  0.11780639  0.64906798    -0.04300
C1089       C  0.97311401  0.12329768  0.67988667    -0.01400
C1090       C  0.97272021  0.15470318  0.70653715     0.03600
C1091       C  0.56202471  0.19668997  0.67400680     0.38300
C1092       C  0.94386266  0.09742425  0.68319303     0.38200
C1093       C  0.94024458  0.16338774  0.73192213     0.36700
C1094       C  0.56001196  0.13585418  0.61662903     0.36700
N1095       N  0.91355670  0.16959827  0.75109090    -0.38100
N1096       N  0.58361543  0.13044194  0.59228614    -0.38100
N1097       N  0.92063051  0.07675220  0.68668038    -0.37600
N1098       N  0.58639388  0.21625567  0.67266724    -0.37600
C1099       C  0.99856656  0.17908733  0.80418954    -0.04300
C1100       C  0.52572117  0.15053741  0.80246903    -0.01400
C1101       C  0.52234157  0.11882961  0.82805604     0.03600
C1102       C  0.49419619  0.11713106  0.85913256    -0.04300
C1103       C  0.96705576  0.14561401  0.86105414    -0.01400
C1104       C  0.96880004  0.17602478  0.83323591     0.03600
C1105       C  0.55890098  0.15478332  0.77753133     0.38300
C1106       C  0.93660185  0.14307453  0.89093796     0.38200
C1107       C  0.93980731  0.20428993  0.83463669     0.36700
C1108       C  0.54833185  0.08830760  0.82252804     0.36700
N1109       N  0.91676008  0.22686227  0.83536936    -0.38100
N1110       N  0.56884153  0.06397870  0.81654944    -0.38100
N1111       N  0.91222411  0.14069489  0.91452561    -0.37400
N1112       N  0.58604243  0.15748874  0.75868608    -0.37600
C1113       C  0.99537136  0.37663057  0.64946208    -0.04300
C1114       C  0.52361191  0.37295787  0.68028632    -0.01400
C1115       C  0.52654902  0.34122764  0.70623751     0.03600
C1116       C  0.99897181  0.31475503  0.70495045    -0.04300
C1117       C  0.96945184  0.31968637  0.67554000    -0.01400
C1118       C  0.96822802  0.34988906  0.64730535     0.03600
C1119       C  0.55054525  0.40117002  0.68448789     0.38300
C1120       C  0.94020146  0.29353439  0.67376147     0.38200
C1121       C  0.93855448  0.35365257  0.61626739     0.36700
C1122       C  0.55977727  0.33465614  0.73092273     0.36700
N1123       N  0.91490154  0.35651920  0.59157158    -0.38100
N1124       N  0.58704215  0.33023077  0.74946067    -0.38100
N1125       N  0.91674463  0.27290448  0.67207348    -0.37600
N1126       N  0.57187309  0.42370616  0.68890291    -0.37600
C1127       C  0.00300564  0.37609546  0.86028999    -0.04300
C1128       C  0.97499404  0.37255568  0.82937748    -0.01400
C1129       C  0.97412854  0.34094759  0.80308565     0.03600
C1130       C  0.00346151  0.31469085  0.80403360    -0.04300
C1131       C  0.53276279  0.31952812  0.83319753    -0.01400
C1132       C  0.53210314  0.34960641  0.86177776     0.03600
C1133       C  0.94665575  0.40102982  0.82476571     0.38300
C1134       C  0.56365368  0.29335455  0.83410223     0.38200
C1135       C  0.56221836  0.35392552  0.89174591     0.36700
C1136       C  0.94144691  0.33411096  0.77818928     0.36700
N1137       N  0.58654669  0.35737406  0.91514390    -0.38100
N1138       N  0.91481196  0.32891779  0.75923655    -0.38100
N1139       N  0.58827173  0.27252935  0.83467841    -0.37600
N1140       N  0.92428284  0.42379911  0.81967932    -0.37600
O1141       O  0.50119512  0.89427615  0.43301149    -0.74200
O1142       O  0.49837567  0.93906444  0.38160940    -0.53100
C1143       C  0.00053053  0.90524956  0.39365547     0.79500
O1144       O  0.89497425  0.00201707  0.07768326    -0.58800
O1145       O  0.93975056  0.99889342  0.12904070    -0.51800
C1146       C  0.90597688  0.00113104  0.11707833     0.71500
O1147       O  0.89466585  0.49519574  0.43319153    -0.73400
O1148       O  0.93932440  0.49670150  0.38164660    -0.53900
C1149       C  0.90562065  0.99537475  0.39379123     0.77500
O1150       O  0.99612500  0.89472846  0.07688587    -0.58500
O1151       O  0.99718325  0.93963630  0.12840711    -0.51600
C1152       C  0.99628232  0.90579555  0.11626711     0.74100
Zr1153     Zr  0.49873744  0.92064410  0.50503126     2.54700
O1154       O  0.95279811  0.87381674  0.49976990    -0.79100
O1155       O  0.54956994  0.87610547  0.01148089    -0.92500
Zr1156     Zr  0.92063143  0.49832736  0.50521790     2.64700
O1157       O  0.87620786  0.94983198  0.50707996    -0.97500
O1158       O  0.87297585  0.54654724  0.00204018    -0.79500
O1159       O  0.95903582  0.95873429  0.46303902    -0.82900
O1160       O  0.95887595  0.95885471  0.04717337    -2.17600
O1161       O  0.59925979  0.99271223  0.07782355    -0.66300
O1162       O  0.55433531  0.99546547  0.12911323    -0.50800
C1163       C  0.58815793  0.49336580  0.11721959     0.72500
O1164       O  0.49484040  0.59929441  0.43207334    -0.59200
O1165       O  0.49601123  0.55412429  0.38080998    -0.51100
C1166       C  0.49509363  0.58807079  0.39268192     0.74300
O1167       O  0.99815279  0.59976283  0.07663940    -0.70600
O1168       O  0.99739098  0.55509029  0.12821867    -0.49200
C1169       C  0.49847568  0.58879051  0.11597274     0.75700
O1170       O  0.59901151  0.50000291  0.43278663    -0.65900
O1171       O  0.55441847  0.49702312  0.38134361    -0.53100
C1172       C  0.58802799  0.49918805  0.39341852     0.74100
Zr1173     Zr  0.57379074  0.99601908  0.00518899     2.77500
O1174       O  0.61956895  0.54323118  0.50826788    -0.96600
O1175       O  0.62051816  0.94678523  0.00230451    -0.77500
Zr1176     Zr  0.99582534  0.57378543  0.00461054     2.70100
O1177       O  0.54332733  0.61919505  0.00184974    -0.78700
O1178       O  0.94633779  0.62019853  0.50694266    -0.97800
Zr1179     Zr  0.49702198  0.49688830  0.42113222     2.21500
Zr1180     Zr  0.99707292  0.99732922  0.08888636     2.11100
O1181       O  0.53531897  0.53560477  0.04700444    -2.46500
O1182       O  0.53533403  0.53522069  0.46277819    -0.78500
O1183       O  0.53678437  0.95778376  0.04748146    -0.70700
O1184       O  0.95738089  0.53661785  0.46266748    -2.31700
O1185       O  0.53697294  0.95758802  0.46266210    -2.27900
O1186       O  0.95761589  0.53695835  0.04734396    -0.72500
H1187       H  0.94387046  0.94408602  0.06549973     0.79500
H1188       H  0.94190880  0.55181168  0.44430069     0.80600
H1189       H  0.55034976  0.55043128  0.06531333     0.82800
H1190       H  0.55248479  0.94238073  0.44425978     0.80500
H1191       H  0.88597111  0.56891252  0.49370536     0.43500
H1192       H  0.93195664  0.61413818  0.03289293     0.42500
H1193       H  0.56165116  0.60884494  0.48124384     0.42100
H1194       H  0.61289739  0.55838845  0.03378920     0.40100
H1195       H  0.61847750  0.93610779  0.97306604     0.43200
H1196       H  0.57028431  0.88764085  0.49669091     0.38000
H1197       H  0.93202183  0.88605472  0.48443299     0.44100
H1198       H  0.88303413  0.93470095  0.03244599     0.40500
H1199       H  0.64253193  0.52990488  0.01661097     0.45400
H1200       H  0.54292998  0.85543359  0.49254949     0.44200
H1201       H  0.85283345  0.96249569  0.51533878     0.44300
H1202       H  0.95850979  0.64326387  0.01455890     0.44700
C1203       C  0.00163902  0.78055233  0.23171323     0.03400
C1204       C  0.00261022  0.78054880  0.27738177     0.03300
C1205       C  0.00260979  0.74690682  0.29936913    -0.17200
C1206       C  0.00155669  0.71316404  0.27760433     0.03400
C1207       C  0.00176486  0.71314329  0.23197270     0.03300
C1208       C  0.00187913  0.74674931  0.20999719    -0.17200
H1209       H  0.00166599  0.74658044  0.17505042     0.05400
H1210       H  0.00279737  0.74702412  0.33431631     0.05400
C1211       C  0.78065390  0.99810167  0.23242572     0.03400
C1212       C  0.78062392  0.99792044  0.27811585     0.03300
C1213       C  0.74693683  0.99840739  0.30005483    -0.17200
C1214       C  0.71327486  0.99812963  0.27821162     0.03400
C1215       C  0.71328484  0.99696228  0.23255317     0.03300
C1216       C  0.74696612  0.99728879  0.21057799    -0.17200
H1217       H  0.74695709  0.99693512  0.17563769     0.05400
H1218       H  0.74693247  0.99874793  0.33499945     0.05400
C1219       C  0.61718702  0.99195002  0.15082592    -0.04300
C1220       C  0.62047877  0.52110440  0.18049974    -0.01400
C1221       C  0.65204304  0.52338546  0.20651430     0.03600
C1222       C  0.67903703  0.99463935  0.20619199    -0.04300
C1223       C  0.67453619  0.96425274  0.17821174    -0.01400
C1224       C  0.64413404  0.96324720  0.15025789     0.03600
C1225       C  0.59200600  0.54959411  0.18356875     0.38300
C1226       C  0.70155910  0.93410133  0.17762519     0.38200
C1227       C  0.64027701  0.93226825  0.12121665     0.36700
C1228       C  0.65792509  0.55706338  0.23019092     0.36700
N1229       N  0.63710157  0.90755155  0.09812487    -0.38100
N1230       N  0.66178586  0.58471785  0.24783159    -0.38100
N1231       N  0.72314711  0.91012077  0.17736515    -0.37600
N1232       N  0.56937669  0.57230356  0.18734699    -0.37600
C1233       C  0.67897612  0.99955611  0.30476572    -0.04300
C1234       C  0.67172735  0.52996180  0.33250875    -0.01400
C1235       C  0.64106021  0.53043803  0.36012459     0.03600
C1236       C  0.61700571  0.50084447  0.36005614    -0.04300
C1237       C  0.62315941  0.97134023  0.33115788    -0.01400
C1238       C  0.65476131  0.96993944  0.30489881     0.03600
C1239       C  0.69611482  0.56072338  0.33323594     0.38300
C1240       C  0.59763062  0.94168807  0.32928087     0.38200
C1241       C  0.66369175  0.93640527  0.28136103     0.36700
C1242       C  0.63357514  0.56193535  0.38797571     0.36700
N1243       N  0.67007279  0.90886890  0.26377989    -0.38100
N1244       N  0.62720120  0.58704018  0.41000808    -0.38100
N1245       N  0.57724857  0.91809370  0.32681244    -0.37600
N1246       N  0.71549789  0.58528361  0.33382678    -0.37600
C1247       C  0.87685669  0.00249374  0.15057897    -0.04300
C1248       C  0.87329398  0.97321605  0.17985398    -0.01400
C1249       C  0.84187564  0.97135809  0.20628103     0.03600
C1250       C  0.81488438  0.00011506  0.20588183    -0.04300
C1251       C  0.81932404  0.53019462  0.17762247    -0.01400
C1252       C  0.85001089  0.53125829  0.15009227     0.03600
C1253       C  0.90119402  0.94406269  0.18175399     0.38300
C1254       C  0.79192098  0.55996154  0.17621578     0.38200
C1255       C  0.85435769  0.56242845  0.12163995     0.36700
C1256       C  0.83608719  0.93816603  0.23067925     0.36700
N1257       N  0.85812244  0.58733242  0.09914838    -0.38100
N1258       N  0.83208891  0.91102068  0.24914481    -0.38100
N1259       N  0.76998467  0.58359718  0.17509306    -0.37600
N1260       N  0.92335534  0.92076594  0.18420388    -0.37600
C1261       C  0.87651470  0.99416221  0.36046792    -0.04300
C1262       C  0.85193715  0.96497485  0.36034204    -0.01400
C1263       C  0.82138800  0.96586419  0.33259218     0.03600
C1264       C  0.81485843  0.99612783  0.30470448    -0.04300
C1265       C  0.83940907  0.52541526  0.30508625    -0.01400
C1266       C  0.87064370  0.52389718  0.33196948     0.03600
C1267       C  0.85838122  0.93360974  0.38844109     0.38300
C1268       C  0.83095370  0.55865787  0.28103102     0.38200
C1269       C  0.89579595  0.55389133  0.33177804     0.36700
C1270       C  0.79626397  0.93569644  0.33326207     0.36700
N1271       N  0.91594626  0.57776329  0.33122199    -0.38100
N1272       N  0.77612537  0.91176112  0.33357091    -0.38100
N1273       N  0.82437012  0.58568499  0.26268638    -0.37600
N1274       N  0.86359440  0.90845750  0.41057347    -0.37600
C1275       C  0.00221386  0.67898496  0.20532584    -0.04300
C1276       C  0.53128160  0.67229246  0.17573305    -0.01400
C1277       C  0.53034692  0.64223593  0.14726142     0.03600
C1278       C  0.00111144  0.61780638  0.14906792    -0.04300
C1279       C  0.97311451  0.62329766  0.17988658    -0.01400
C1280       C  0.97272064  0.65470317  0.20653704     0.03600
C1281       C  0.56202466  0.69669044  0.17400647     0.38300
C1282       C  0.94386313  0.59742425  0.18319284     0.38200
C1283       C  0.94024490  0.66338788  0.23192175     0.36700
C1284       C  0.56001236  0.63585448  0.11662894     0.36700
N1285       N  0.91355691  0.66959866  0.25109018    -0.38100
N1286       N  0.58361586  0.63044251  0.09228602    -0.38100
N1287       N  0.92063080  0.57675242  0.18668019    -0.37600
N1288       N  0.58639364  0.71625635  0.17266651    -0.37600
C1289       C  0.99856685  0.67908721  0.30418951    -0.04300
C1290       C  0.52572138  0.65053735  0.30246900    -0.01400
C1291       C  0.52234184  0.61882957  0.32805607     0.03600
C1292       C  0.49419649  0.61713105  0.35913269    -0.04300
C1293       C  0.96705614  0.64561400  0.36105429    -0.01400
C1294       C  0.96880037  0.67602468  0.33323598     0.03600
C1295       C  0.55890116  0.65478329  0.27753116     0.38300
C1296       C  0.93660221  0.64307472  0.39093822     0.38200
C1297       C  0.93980749  0.70428968  0.33463677     0.36700
C1298       C  0.54833194  0.58830738  0.32252778     0.36700
N1299       N  0.91676013  0.72686190  0.33536942    -0.38100
N1300       N  0.56884135  0.56397826  0.31654900    -0.38100
N1301       N  0.91222440  0.64069516  0.41452581    -0.37400
N1302       N  0.58604246  0.65748879  0.25868562    -0.37600
C1303       C  0.99537141  0.87663057  0.14946232    -0.04300
C1304       C  0.52361190  0.87295771  0.18028658    -0.01400
C1305       C  0.52654886  0.84122748  0.20623773     0.03600
C1306       C  0.99897151  0.81475512  0.20495092    -0.04300
C1307       C  0.96945154  0.81968662  0.17554051    -0.01400
C1308       C  0.96822793  0.84988923  0.14730571     0.03600
C1309       C  0.55054541  0.90116973  0.18448811     0.38300
C1310       C  0.94020101  0.79353485  0.17376204     0.38200
C1311       C  0.93855464  0.85365279  0.11626745     0.36700
C1312       C  0.55977722  0.83465572  0.23092267     0.36700
N1313       N  0.91490196  0.85651953  0.09157132    -0.38100
N1314       N  0.58704207  0.83022987  0.24946053    -0.38100
N1315       N  0.91674399  0.77290516  0.17207412    -0.37600
N1316       N  0.57187336  0.92370579  0.18890310    -0.37600
C1317       C  0.00300598  0.87609545  0.36029008    -0.04300
C1318       C  0.97499417  0.87255555  0.32937787    -0.01400
C1319       C  0.97412856  0.84094737  0.30308619     0.03600
C1320       C  0.00346159  0.81469071  0.30403396    -0.04300
C1321       C  0.53276306  0.81952797  0.33319769    -0.01400
C1322       C  0.53210367  0.84960650  0.36177762     0.03600
C1323       C  0.94665591  0.90102964  0.32476624     0.38300
C1324       C  0.56365395  0.79335434  0.33410248     0.38200
C1325       C  0.56221901  0.85392569  0.39174568     0.36700
C1326       C  0.94144679  0.83411041  0.27819029     0.36700
N1327       N  0.58654753  0.85737427  0.41514341    -0.38100
N1328       N  0.91481165  0.82891711  0.25923802    -0.38100
N1329       N  0.58827203  0.77252916  0.33467882    -0.37600
N1330       N  0.92428284  0.92379882  0.31968009    -0.37600
O1331       O  0.50119504  0.89427599  0.93301141    -0.74200
O1332       O  0.49837579  0.93906440  0.88160950    -0.53100
C1333       C  0.00053051  0.90524938  0.89365557     0.79500
O1334       O  0.89497409  0.00201704  0.57768318    -0.58800
O1335       O  0.93975047  0.99889337  0.62904059    -0.51800
C1336       C  0.90597677  0.00113106  0.61707828     0.71500
O1337       O  0.89466593  0.49519566  0.93319130    -0.73400
O1338       O  0.93932452  0.49670158  0.88164642    -0.53900
C1339       C  0.90562079  0.99537463  0.89379130     0.77500
O1340       O  0.99612497  0.89472850  0.57688586    -0.58500
O1341       O  0.99718325  0.93963636  0.62840715    -0.51600
C1342       C  0.99628234  0.90579558  0.61626712     0.74100
Zr1343     Zr  0.49873766  0.92064375  0.00503105     2.54700
O1344       O  0.95279901  0.87381612  0.99977061    -0.79100
O1345       O  0.54957031  0.87610743  0.51148322    -0.92500
Zr1346     Zr  0.92063139  0.49832742  0.00521780     2.64700
O1347       O  0.87620649  0.94983353  0.00707907    -0.97500
O1348       O  0.87297724  0.54654886  0.50203978    -0.79500
O1349       O  0.95903598  0.95873418  0.96303913    -0.82900
O1350       O  0.95887708  0.95885598  0.54717197    -2.17600
O1351       O  0.59925978  0.99271244  0.57782370    -0.66300
O1352       O  0.55433528  0.99546543  0.62911343    -0.50800
C1353       C  0.58815801  0.49336588  0.61721958     0.72500
O1354       O  0.49484051  0.59929448  0.93207321    -0.59200
O1355       O  0.49601120  0.55412428  0.88080993    -0.51100
C1356       C  0.49509361  0.58807079  0.89268186     0.74300
O1357       O  0.99815264  0.59976287  0.57663940    -0.70600
O1358       O  0.99739094  0.55509037  0.62821868    -0.49200
C1359       C  0.49847563  0.58879054  0.61597273     0.75700
O1360       O  0.59901146  0.50000298  0.93278644    -0.65900
O1361       O  0.55441844  0.49702301  0.88134343    -0.53100
C1362       C  0.58802795  0.49918810  0.89341836     0.74100
Zr1363     Zr  0.57379094  0.99601912  0.50518912     2.77500
O1364       O  0.61956769  0.54323088  0.00826390    -0.96600
O1365       O  0.62051767  0.94678430  0.50230175    -0.77500
Zr1366     Zr  0.99582546  0.57378534  0.50461067     2.70100
O1367       O  0.54332505  0.61919639  0.50185301    -0.78700
O1368       O  0.94633765  0.62019899  0.00694426    -0.97800
Zr1369     Zr  0.49702193  0.49688828  0.92113210     2.21500
Zr1370     Zr  0.99707303  0.99732940  0.58888647     2.11100
O1371       O  0.53531889  0.53560486  0.54700476    -2.46500
O1372       O  0.53533397  0.53522041  0.96277810    -0.78500
O1373       O  0.53678439  0.95778386  0.54748161    -0.70700
O1374       O  0.95738009  0.53661879  0.96266636    -2.31700
O1375       O  0.53697339  0.95758749  0.96266135    -2.27900
O1376       O  0.95761588  0.53695828  0.54734414    -0.72500
H1377       H  0.94387001  0.94408566  0.56550021     0.79500
H1378       H  0.94190939  0.55181164  0.94430069     0.80600
H1379       H  0.55034960  0.55043106  0.56531396     0.82800
H1380       H  0.55248458  0.94238091  0.94425935     0.80500
H1381       H  0.88596931  0.56891210  0.99370892     0.43500
H1382       H  0.93195645  0.61413757  0.53289092     0.42500
H1383       H  0.56165284  0.60884345  0.98124029     0.42100
H1384       H  0.61289959  0.55838810  0.53379417     0.40100
H1385       H  0.61847643  0.93610736  0.47306326     0.43200
H1386       H  0.57028459  0.88763961  0.99668926     0.38000
H1387       H  0.93202301  0.88605428  0.98443322     0.44100
H1388       H  0.88303428  0.93470061  0.53244775     0.40500
H1389       H  0.64253389  0.52990477  0.51661271     0.45400
H1390       H  0.54293014  0.85543233  0.99254657     0.44200
H1391       H  0.85283302  0.96249716  0.01533991     0.44300
H1392       H  0.95850994  0.64326311  0.51455813     0.44700
C1393       C  0.00163885  0.78055241  0.73171360     0.03400
C1394       C  0.00261016  0.78054881  0.77738189     0.03300
C1395       C  0.00260978  0.74690677  0.79936914    -0.17200
C1396       C  0.00155661  0.71316397  0.77760442     0.03400
C1397       C  0.00176473  0.71314325  0.73197305     0.03300
C1398       C  0.00187898  0.74674938  0.70999803    -0.17200
H1399       H  0.00166540  0.74658062  0.67505126     0.05400
H1400       H  0.00279779  0.74702401  0.83431624     0.05400
C1401       C  0.78065397  0.99810173  0.73242583     0.03400
C1402       C  0.78062395  0.99792040  0.77811598     0.03300
C1403       C  0.74693685  0.99840741  0.80005496    -0.17200
C1404       C  0.71327493  0.99812971  0.77821165     0.03400
C1405       C  0.71328493  0.99696232  0.73255314     0.03300
C1406       C  0.74696627  0.99728888  0.71057799    -0.17200
H1407       H  0.74695730  0.99693566  0.67563767     0.05400
H1408       H  0.74693247  0.99874835  0.83499958     0.05400
C1409       C  0.61718707  0.99195010  0.65082592    -0.04300
C1410       C  0.62047871  0.52110435  0.68049994    -0.01400
C1411       C  0.65204300  0.52338543  0.70651436     0.03600
C1412       C  0.67903709  0.99463941  0.70619197    -0.04300
C1413       C  0.67453621  0.96425278  0.67821173    -0.01400
C1414       C  0.64413406  0.96324728  0.65025787     0.03600
C1415       C  0.59200609  0.54959417  0.68356882     0.38300
C1416       C  0.70155917  0.93410139  0.67762510     0.38200
C1417       C  0.64027691  0.93226838  0.62121655     0.36700
C1418       C  0.65792507  0.55706329  0.73019100     0.36700
N1419       N  0.63710147  0.90755169  0.59812474    -0.38100
N1420       N  0.66178596  0.58471772  0.74783170    -0.38100
N1421       N  0.72314711  0.91012075  0.67736507    -0.37600
N1422       N  0.56937677  0.57230359  0.68734711    -0.37600
C1423       C  0.67897616  0.99955617  0.80476571    -0.04300
C1424       C  0.67172738  0.52996168  0.83250877    -0.01400
C1425       C  0.64106026  0.53043789  0.86012462     0.03600
C1426       C  0.61700573  0.50084443  0.86005606    -0.04300
C1427       C  0.62315940  0.97134031  0.83115776    -0.01400
C1428       C  0.65476125  0.96993955  0.80489863     0.03600
C1429       C  0.69611480  0.56072328  0.83323604     0.38300
C1430       C  0.59763061  0.94168816  0.82928071     0.38200
C1431       C  0.66369170  0.93640533  0.78136087     0.36700
C1432       C  0.63357508  0.56193524  0.88797561     0.36700
N1433       N  0.67007261  0.90886897  0.76377964    -0.38100
N1434       N  0.62720131  0.58704010  0.91000795    -0.38100
N1435       N  0.57724854  0.91809383  0.82681224    -0.37600
N1436       N  0.71549784  0.58528352  0.83382694    -0.37600
C1437       C  0.87685662  0.00249372  0.65057896    -0.04300
C1438       C  0.87329402  0.97321607  0.67985408    -0.01400
C1439       C  0.84187569  0.97135808  0.70628121     0.03600
C1440       C  0.81488444  0.00011503  0.70588194    -0.04300
C1441       C  0.81932400  0.53019462  0.67762240    -0.01400
C1442       C  0.85001086  0.53125831  0.65009220     0.03600
C1443       C  0.90119411  0.94406279  0.68175407     0.38300
C1444       C  0.79192094  0.55996153  0.67621567     0.38200
C1445       C  0.85435782  0.56242850  0.62164000     0.36700
C1446       C  0.83608710  0.93816598  0.73067934     0.36700
N1447       N  0.85812249  0.58733255  0.59914855    -0.38100
N1448       N  0.83208881  0.91102064  0.74914492    -0.38100
N1449       N  0.76998460  0.58359714  0.67509286    -0.37600
N1450       N  0.92335544  0.92076607  0.68420413    -0.37600
C1451       C  0.87651480  0.99416210  0.86046798    -0.04300
C1452       C  0.85193718  0.96497479  0.86034211    -0.01400
C1453       C  0.82138803  0.96586415  0.83259223     0.03600
C1454       C  0.81485845  0.99612782  0.80470462    -0.04300
C1455       C  0.83940910  0.52541528  0.80508612    -0.01400
C1456       C  0.87064367  0.52389730  0.83196947     0.03600
C1457       C  0.85838127  0.93360961  0.88844106     0.38300
C1458       C  0.83095354  0.55865786  0.78103095     0.38200
C1459       C  0.89579592  0.55389142  0.83177792     0.36700
C1460       C  0.79626386  0.93569651  0.83326227     0.36700
N1461       N  0.91594610  0.57776350  0.83122193    -0.38100
N1462       N  0.77612525  0.91176120  0.83357128    -0.38100
N1463       N  0.82436985  0.58568492  0.76268624    -0.37600
N1464       N  0.86359453  0.90845736  0.91057340    -0.37600
C1465       C  0.00221375  0.67898496  0.70532595    -0.04300
C1466       C  0.53128154  0.67229249  0.67573302    -0.01400
C1467       C  0.53034676  0.64223601  0.64726133     0.03600
C1468       C  0.00111131  0.61780635  0.64906798    -0.04300
C1469       C  0.97311436  0.62329767  0.67988658    -0.01400
C1470       C  0.97272051  0.65470317  0.70653708     0.03600
C1471       C  0.56202470  0.69669039  0.67400641     0.38300
C1472       C  0.94386314  0.59742413  0.68319299     0.38200
C1473       C  0.94024478  0.66338790  0.73192172     0.36700
C1474       C  0.56001227  0.63585442  0.61662899     0.36700
N1475       N  0.91355683  0.66959852  0.75109028    -0.38100
N1476       N  0.58361574  0.63044248  0.59228602    -0.38100
N1477       N  0.92063097  0.57675211  0.68668038    -0.37600
N1478       N  0.58639372  0.71625626  0.67266643    -0.37600
C1479       C  0.99856677  0.67908714  0.80418954    -0.04300
C1480       C  0.52572128  0.65053725  0.80246894    -0.01400
C1481       C  0.52234172  0.61882944  0.82805598     0.03600
C1482       C  0.49419650  0.61713102  0.85913269    -0.04300
C1483       C  0.96705607  0.64561392  0.86105423    -0.01400
C1484       C  0.96880032  0.67602463  0.83323597     0.03600
C1485       C  0.55890107  0.65478319  0.77753117     0.38300
C1486       C  0.93660223  0.64307466  0.89093823     0.38200
C1487       C  0.93980742  0.70428960  0.83463660     0.36700
C1488       C  0.54833184  0.58830725  0.82252780     0.36700
N1489       N  0.91676003  0.72686177  0.83536932    -0.38100
N1490       N  0.56884122  0.56397810  0.81654903    -0.38100
N1491       N  0.91222451  0.64069507  0.91452591    -0.37400
N1492       N  0.58604238  0.65748868  0.75868567    -0.37600
C1493       C  0.99537144  0.87663056  0.64946227    -0.04300
C1494       C  0.52361191  0.87295772  0.68028653    -0.01400
C1495       C  0.52654882  0.84122755  0.70623780     0.03600
C1496       C  0.99897150  0.81475509  0.70495089    -0.04300
C1497       C  0.96945154  0.81968662  0.67554042    -0.01400
C1498       C  0.96822798  0.84988920  0.64730557     0.03600
C1499       C  0.55054529  0.90116985  0.68448824     0.38300
C1500       C  0.94020091  0.79353496  0.67376202     0.38200
C1501       C  0.93855457  0.85365275  0.61626739     0.36700
C1502       C  0.55977714  0.83465580  0.73092279     0.36700
N1503       N  0.91490182  0.85651951  0.59157132    -0.38100
N1504       N  0.58704199  0.83023004  0.74946068    -0.38100
N1505       N  0.91674387  0.77290529  0.67207415    -0.37600
N1506       N  0.57187321  0.92370592  0.68890322    -0.37600
C1507       C  0.00300600  0.87609537  0.86029010    -0.04300
C1508       C  0.97499418  0.87255545  0.82937789    -0.01400
C1509       C  0.97412855  0.84094734  0.80308617     0.03600
C1510       C  0.00346153  0.81469060  0.80403407    -0.04300
C1511       C  0.53276308  0.81952793  0.83319768    -0.01400
C1512       C  0.53210367  0.84960643  0.86177765     0.03600
C1513       C  0.94665590  0.90102957  0.82476618     0.38300
C1514       C  0.56365393  0.79335429  0.83410232     0.38200
C1515       C  0.56221911  0.85392573  0.89174556     0.36700
C1516       C  0.94144668  0.83411056  0.77819027     0.36700
N1517       N  0.58654765  0.85737436  0.91514326    -0.38100
N1518       N  0.91481159  0.82891727  0.75923787    -0.38100
N1519       N  0.58827200  0.77252913  0.83467870    -0.37600
N1520       N  0.92428294  0.92379883  0.81967999    -0.37600
loop_ 
_geom_bond_atom_site_label_1 
_geom_bond_atom_site_label_2 
_geom_bond_distance 
_geom_bond_site_symmetry_2 
_ccdc_geom_bond_type 
O1          Zr13   2.431   1_455  S
O1          C763   1.286       .  A
O2         Zr419   2.432       .  S
O2          C763   1.288   1_655  A
C3          O761   1.286       .  A
C3          O762   1.288       .  A
C3          C177   1.481       .  S
O4         Zr586   2.438       .  S
O4            C6   1.288       .  A
O5          Zr40   2.434       .  S
O5            C6   1.288       .  A
C6          C107   1.486       .  S
O7          Zr16   2.433       .  S
O7          C389   1.287       .  A
O8         Zr799   2.438       .  S
O8          C389   1.289       .  A
C9          O387   1.287       .  A
C9          O388   1.289       .  A
C9          C121   1.485       .  S
O10        Zr963   2.427       .  S
O10          C12   1.286       .  A
O11         Zr40   2.435       .  S
O11          C12   1.288       .  A
C12         C163   1.483       .  S
Zr13        O960   2.427       .  S
Zr13         O45   2.369   1_655  S
Zr13        O779   2.368       .  S
Zr13        O970   2.371       .  S
Zr13        O233   2.367   1_655  S
Zr13        O774   2.433       .  S
Zr13        O205   2.434   1_655  S
O14        Zr773   2.433       .  S
O14          H57   0.990       .  S
O15        Zr203   2.434   1_455  S
O15         H246   0.990   1_554  S
O15         H250   0.990   1_554  S
Zr16        O574   2.438   1_565  S
Zr16         O44   2.369   1_565  S
Zr16        O590   2.366       .  S
Zr16        O399   2.370       .  S
Zr16        O236   2.371   1_565  S
Zr16        O397   2.435       .  S
Zr16        O208   2.434   1_565  S
O17        Zr396   2.435       .  S
O17          H61   0.990       .  S
O17         H248   0.990       .  S
O18        Zr206   2.434   1_545  S
O18         H241   0.990   1_554  S
O19        Zr773   2.368       .  S
O19        Zr396   2.370       .  S
O19       Zr1179   2.382       .  S
O20         Zr40   2.387       .  S
O20        Zr963   2.371       .  S
O20        Zr586   2.366       .  S
O20          H47   0.966       .  S
O21         Zr33   2.441       .  S
O21         C403   1.288       .  A
O22        Zr800   2.435   1_455  S
O22         C403   1.288       .  A
C23         O401   1.288       .  A
C23         O402   1.288       .  A
C23         C459   1.487       .  S
O24        Zr986   2.438       .  S
O24          C26   1.288       .  A
O25         Zr39   2.433   1_545  S
O25          C26   1.288       .  A
C26         C152   1.486       .  S
O27         Zr36   2.428       .  S
O27         C789   1.286       .  A
O28        Zr420   2.428   1_545  S
O28         C789   1.287       .  A
C29         O787   1.286       .  A
C29         O788   1.287       .  A
C29         C898   1.477   1_655  S
O30        Zr603   2.434   1_545  S
O30          C32   1.287   1_545  A
O31         Zr39   2.431   1_455  S
O31          C32   1.288       .  A
C32          C96   1.482   1_565  S
Zr33        O600   2.434   1_554  S
Zr33         O43   2.369       .  S
Zr33        O421   2.365       .  S
Zr33        O612   2.372   1_554  S
Zr33        O235   2.370   1_554  S
Zr33         O35   2.436       .  S
Zr33        O604   2.436       .  S
O34        Zr603   2.436   1_545  S
O34         H244   0.990       .  S
O34         H249   0.990       .  S
O35          H55   0.990   1_554  S
Zr36        O974   2.438   1_554  S
Zr36         O46   2.372       .  S
Zr36        O992   2.365   1_554  S
Zr36        O801   2.373       .  S
Zr36        O234   2.368   1_554  S
Zr36        O797   2.434       .  S
Zr36        O228   2.435       .  S
O37        Zr796   2.434   1_455  S
O37         H243   0.990   1_554  S
O38        Zr226   2.435       .  S
O38         H242   0.990       .  S
O38         H252   0.990       .  S
Zr39        O382   2.432       .  S
Zr39        O768   2.438       .  S
Zr39         O42   2.385   1_665  S
Zr39       O1159   2.382       .  S
Zr39        O804   2.388   1_565  S
Zr39        O425   2.391   1_655  S
Zr40        O782   2.435       .  S
Zr40        O408   2.428       .  S
Zr40       O1181   2.390       .  S
Zr40        O803   2.383       .  S
Zr40        O426   2.388       .  S
O41        Zr413   2.365   1_545  S
O41        Zr796   2.373   1_455  S
O41       Zr1180   2.390   1_445  S
O41          H49   0.966       .  S
O42        Zr603   2.372   1_545  S
O42        Zr986   2.365   1_455  S
O43        Zr203   2.367   1_455  S
O43        Zr800   2.383   1_455  S
O44        Zr226   2.368       .  S
O44        Zr799   2.388   1_545  S
O44          H48   0.966       .  S
O45        Zr223   2.370       .  S
O45        Zr419   2.391   1_455  S
O45          H50   0.965       .  S
O46        Zr206   2.371   1_545  S
O46        Zr420   2.388   1_545  S
H51         O208   0.990       .  S
H52         O228   0.990       .  S
H53         O227   0.990       .  S
H54         O224   0.990       .  S
H56         O205   0.990       .  S
H58         O207   0.990       .  S
H59         O224   0.990       .  S
H60         O205   0.990       .  S
H62         O228   0.990       .  S
C63         C166   1.499       .  S
C63          C64   1.418       .  A
C63          C68   1.401       .  A
C64         C180   1.492       .  S
C64          C65   1.404       .  A
C65          C66   1.402       .  A
C65          H70   1.085       .  S
C66         C149   1.499       .  S
C66          C67   1.416       .  A
C67         C135   1.491       .  S
C67          C68   1.403       .  A
C68          H69   1.085       .  S
C71         C110   1.500       .  S
C71          C72   1.418       .  A
C71          C76   1.406       .  A
C72         C124   1.498       .  S
C72          C73   1.405       .  A
C73          C74   1.404       .  A
C73          H78   1.085       .  S
C74          C93   1.498       .  S
C74          C75   1.418       .  A
C75          C82   1.499       .  S
C75          C76   1.406       .  A
C76          H77   1.085       .  S
C79         C403   1.487       .  S
C79          C84   1.412       .  A
C79         C460   1.411       .  A
C80          C81   1.412       .  A
C80         C459   1.411   1_545  A
C80          C85   1.448       .  S
C81         C462   1.415   1_545  A
C81          C88   1.449       .  S
C82          C83   1.418       .  A
C82         C461   1.415       .  A
C83          C84   1.410       .  A
C83          C86   1.452       .  S
C84          C87   1.452       .  S
C85          N92   1.156       .  T
C86          N91   1.157       .  T
C87          N89   1.157       .  T
C88          N90   1.157       .  T
C93          C98   1.415       .  A
C93         C474   1.418       .  A
C94          C95   1.409       .  A
C94         C473   1.418   1_545  A
C94          C99   1.452       .  S
C95          C96   1.411       .  A
C95         C102   1.453       .  S
C96         C477   1.410   1_545  A
C97          C98   1.411       .  A
C97         C476   1.410       .  A
C97         C100   1.449       .  S
C98         C101   1.449       .  S
C99         N106   1.157       .  T
C100        N105   1.156       .  T
C101        N103   1.157       .  T
C102        N104   1.157       .  T
C107        C108   1.412       .  A
C107        C492   1.412       .  A
C108        C109   1.413       .  A
C108        C113   1.449       .  S
C109        C110   1.415       .  A
C109        C116   1.449       .  S
C110        C491   1.418       .  A
C111        C112   1.410       .  A
C111        C490   1.418       .  A
C111        C114   1.452       .  S
C112        C487   1.412       .  A
C112        C115   1.452       .  S
C113        N120   1.156       .  T
C114        N119   1.157       .  T
C115        N117   1.157       .  T
C116        N118   1.157       .  T
C121        C122   1.412       .  A
C121        C506   1.411       .  A
C122        C123   1.409       .  A
C122        C127   1.452       .  S
C123        C124   1.417       .  A
C123        C130   1.453       .  S
C124        C505   1.414       .  A
C125        C126   1.413       .  A
C125        C504   1.414   1_545  A
C125        C128   1.449       .  S
C126        C501   1.411   1_545  A
C126        C129   1.448       .  S
C127        N134   1.157       .  T
C128        N133   1.157       .  T
C129        N131   1.156       .  T
C130        N132   1.157       .  T
C135        C140   1.415       .  A
C135        C896   1.418       .  A
C136        C137   1.406       .  A
C136        C895   1.418       .  A
C136        C141   1.454       .  S
C137        C898   1.411       .  A
C137        C144   1.453       .  S
C138        C789   1.477       .  S
C138        C139   1.409       .  A
C138        C897   1.411       .  A
C139        C140   1.409       .  A
C139        C142   1.449       .  S
C140        C143   1.449       .  S
C141        N148   1.158       .  T
C142        N147   1.156       .  T
C143        N145   1.157       .  T
C144        N146   1.157       .  T
C149        C154   1.419       .  A
C149        C910   1.414       .  A
C150        C151   1.412       .  A
C150        C909   1.414   1_455  A
C150        C155   1.449       .  S
C151        C152   1.412   1_455  A
C151        C158   1.448       .  S
C152        C913   1.412       .  A
C153        C154   1.409       .  A
C153        C912   1.412       .  A
C153        C156   1.453       .  S
C154        C157   1.453       .  S
C155        N162   1.157       .  T
C156        N161   1.157       .  T
C157        N159   1.157       .  T
C158        N160   1.156       .  T
C163        C168   1.412       .  A
C163        C924   1.410       .  A
C164        C165   1.412       .  A
C164        C923   1.410   1_455  A
C164        C169   1.449       .  S
C165        C926   1.416   1_455  A
C165        C172   1.449       .  S
C166        C167   1.420       .  A
C166        C925   1.416       .  A
C167        C168   1.408       .  A
C167        C170   1.453       .  S
C168        C171   1.454       .  S
C169        N176   1.156       .  T
C170        N175   1.157       .  T
C171        N173   1.157       .  T
C172        N174   1.157       .  T
C177        C178   1.411       .  A
C177        C942   1.413       .  A
C178        C179   1.410       .  A
C178        C183   1.449       .  S
C179        C180   1.413       .  A
C179        C186   1.449       .  S
C180        C941   1.417       .  A
C181        C182   1.407       .  A
C181        C940   1.417       .  A
C181        C184   1.453       .  S
C182        C937   1.413       .  A
C182        C185   1.452       .  S
C183        N190   1.156       .  T
C184        N189   1.157       .  T
C185        N187   1.157       .  T
C186        N188   1.157       .  T
O191       Zr203   2.431   1_456  S
O191        C953   1.286       .  A
O192       Zr609   2.432       .  S
O192        C953   1.288   1_655  A
C193        O951   1.286       .  A
C193        O952   1.288       .  A
C193        C367   1.481       .  S
O194       Zr396   2.438       .  S
O194        C196   1.288       .  A
O195       Zr230   2.434       .  S
O195        C196   1.288       .  A
C196        C297   1.486       .  S
O197       Zr206   2.433   1_556  S
O197        C579   1.287       .  A
O198       Zr989   2.438       .  S
O198        C579   1.289       .  A
C199        O577   1.287       .  A
C199        O578   1.289       .  A
C199        C311   1.485       .  S
O200       Zr773   2.427       .  S
O200        C202   1.286       .  A
O201       Zr230   2.435       .  S
O201        C202   1.288       .  A
C202        C353   1.483       .  S
Zr203       O770   2.427       .  S
Zr203       O969   2.368   1_554  S
Zr203       O780   2.371       .  S
Zr203       O235   2.369   1_654  S
Zr203       O964   2.433   1_554  S
O204       Zr963   2.433   1_556  S
O204        H247   0.990       .  S
Zr206       O384   2.438   1_565  S
Zr206       O400   2.366       .  S
Zr206       O589   2.370   1_554  S
Zr206       O234   2.369   1_564  S
Zr206       O587   2.435       .  S
O207       Zr586   2.435       .  S
O207        H251   0.990       .  S
O209       Zr963   2.368   1_556  S
O209       Zr586   2.370   1_556  S
O209      Zr1369   2.382       .  S
O210       Zr773   2.371       .  S
O210       Zr396   2.366       .  S
O210       Zr230   2.387       .  S
O210        H237   0.966       .  S
O211       Zr223   2.441       .  S
O211        C593   1.288       .  A
O212       Zr990   2.435   1_455  S
O212        C593   1.288       .  A
C213        O591   1.288       .  A
C213        O592   1.288       .  A
C213        C649   1.487       .  S
O214       Zr796   2.438   1_556  S
O214        C216   1.288       .  A
O215       Zr229   2.433   1_545  S
O215        C216   1.288       .  A
C216        C342   1.486       .  S
O217       Zr226   2.428       .  S
O217        C979   1.286       .  A
O218       Zr610   2.428   1_545  S
O218        C979   1.287       .  A
C219        O977   1.286       .  A
C219        O978   1.287       .  A
C219       C1088   1.477   1_655  S
O220       Zr413   2.434   1_546  S
O220        C222   1.287   1_545  A
O221       Zr229   2.431   1_455  S
O221        C222   1.288       .  A
C222        C286   1.482   1_565  S
Zr223       O410   2.434       .  S
Zr223       O611   2.365       .  S
Zr223       O422   2.372       .  S
Zr223       O233   2.369       .  S
Zr223       O414   2.436       .  S
Zr223       O225   2.436       .  S
O224       Zr413   2.436   1_545  S
O225        H245   0.990       .  S
Zr226       O784   2.438       .  S
Zr226       O802   2.365       .  S
Zr226       O991   2.373       .  S
Zr226       O236   2.372       .  S
Zr226       O987   2.434       .  S
O227       Zr986   2.434   1_455  S
Zr229       O572   2.432       .  S
Zr229       O958   2.438       .  S
Zr229      O1349   2.382       .  S
Zr229       O232   2.385   1_665  S
Zr229       O994   2.388   1_565  S
Zr229       O615   2.391   1_655  S
Zr230       O972   2.435       .  S
Zr230       O598   2.428       .  S
Zr230      O1371   2.390       .  S
Zr230       O993   2.383       .  S
Zr230       O616   2.388       .  S
O231       Zr603   2.365   1_545  S
O231       Zr986   2.373   1_455  S
O231      Zr1370   2.390   1_445  S
O231        H239   0.966       .  S
O232       Zr413   2.372   1_546  S
O232       Zr796   2.365   1_456  S
O233       Zr990   2.383   1_455  S
O234       Zr989   2.388   1_545  S
O234        H238   0.966       .  S
O235       Zr609   2.391   1_455  S
O235        H240   0.965       .  S
O236       Zr610   2.388   1_545  S
C253        C356   1.499       .  S
C253        C254   1.418       .  A
C253        C258   1.401       .  A
C254        C370   1.492       .  S
C254        C255   1.404       .  A
C255        C256   1.402       .  A
C255        H260   1.085       .  S
C256        C339   1.499       .  S
C256        C257   1.416       .  A
C257        C325   1.491       .  S
C257        C258   1.403       .  A
C258        H259   1.085       .  S
C261        C300   1.500       .  S
C261        C262   1.418       .  A
C261        C266   1.406       .  A
C262        C314   1.498       .  S
C262        C263   1.405       .  A
C263        C264   1.404       .  A
C263        H268   1.085       .  S
C264        C283   1.498       .  S
C264        C265   1.418       .  A
C265        C272   1.499       .  S
C265        C266   1.406       .  A
C266        H267   1.085       .  S
C269        C593   1.487       .  S
C269        C650   1.411       .  A
C269        C274   1.412       .  A
C270        C649   1.411   1_545  A
C270        C271   1.412       .  A
C270        C275   1.448       .  S
C271        C652   1.415   1_545  A
C271        C278   1.449       .  S
C272        C651   1.415       .  A
C272        C273   1.418       .  A
C273        C274   1.410       .  A
C273        C276   1.452       .  S
C274        C277   1.452       .  S
C275        N282   1.156       .  T
C276        N281   1.157       .  T
C277        N279   1.157       .  T
C278        N280   1.157       .  T
C283        C664   1.418       .  A
C283        C288   1.415       .  A
C284        C663   1.418   1_545  A
C284        C285   1.409       .  A
C284        C289   1.452       .  S
C285        C286   1.411       .  A
C285        C292   1.453       .  S
C286        C667   1.410   1_545  A
C287        C666   1.410       .  A
C287        C288   1.411       .  A
C287        C290   1.449       .  S
C288        C291   1.449       .  S
C289        N296   1.157       .  T
C290        N295   1.156       .  T
C291        N293   1.157       .  T
C292        N294   1.157       .  T
C297        C298   1.412       .  A
C297        C682   1.412       .  A
C298        C299   1.413       .  A
C298        C303   1.449       .  S
C299        C300   1.415       .  A
C299        C306   1.449       .  S
C300        C681   1.418       .  A
C301        C680   1.418       .  A
C301        C302   1.410       .  A
C301        C304   1.452       .  S
C302        C677   1.412       .  A
C302        C305   1.452       .  S
C303        N310   1.156       .  T
C304        N309   1.157       .  T
C305        N307   1.157       .  T
C306        N308   1.157       .  T
C311        C312   1.412       .  A
C311        C696   1.411       .  A
C312        C313   1.409       .  A
C312        C317   1.452       .  S
C313        C314   1.417       .  A
C313        C320   1.453       .  S
C314        C695   1.414       .  A
C315        C694   1.414   1_545  A
C315        C316   1.413       .  A
C315        C318   1.449       .  S
C316        C691   1.411   1_545  A
C316        C319   1.448       .  S
C317        N324   1.157       .  T
C318        N323   1.157       .  T
C319        N321   1.156       .  T
C320        N322   1.157       .  T
C325       C1086   1.418       .  A
C325        C330   1.415       .  A
C326       C1085   1.418       .  A
C326        C327   1.406       .  A
C326        C331   1.454       .  S
C327       C1088   1.411       .  A
C327        C334   1.453       .  S
C328        C979   1.477       .  S
C328       C1087   1.411       .  A
C328        C329   1.409       .  A
C329        C330   1.409       .  A
C329        C332   1.449       .  S
C330        C333   1.449       .  S
C331        N338   1.158       .  T
C332        N337   1.156       .  T
C333        N335   1.157       .  T
C334        N336   1.157       .  T
C339       C1100   1.414       .  A
C339        C344   1.419       .  A
C340       C1099   1.414   1_455  A
C340        C341   1.412       .  A
C340        C345   1.449       .  S
C341        C342   1.412   1_455  A
C341        C348   1.448       .  S
C342       C1103   1.412       .  A
C343       C1102   1.412       .  A
C343        C344   1.409       .  A
C343        C346   1.453       .  S
C344        C347   1.453       .  S
C345        N352   1.157       .  T
C346        N351   1.157       .  T
C347        N349   1.157       .  T
C348        N350   1.156       .  T
C353       C1114   1.410       .  A
C353        C358   1.412       .  A
C354       C1113   1.410   1_455  A
C354        C355   1.412       .  A
C354        C359   1.449       .  S
C355       C1116   1.416   1_455  A
C355        C362   1.449       .  S
C356       C1115   1.416       .  A
C356        C357   1.420       .  A
C357        C358   1.408       .  A
C357        C360   1.453       .  S
C358        C361   1.454       .  S
C359        N366   1.156       .  T
C360        N365   1.157       .  T
C361        N363   1.157       .  T
C362        N364   1.157       .  T
C367        C368   1.411       .  A
C367       C1132   1.413       .  A
C368        C369   1.410       .  A
C368        C373   1.449       .  S
C369        C370   1.413       .  A
C369        C376   1.449       .  S
C370       C1131   1.417       .  A
C371       C1130   1.417       .  A
C371        C372   1.407       .  A
C371        C374   1.453       .  S
C372       C1127   1.413       .  A
C372        C375   1.452       .  S
C373        N380   1.156       .  T
C374        N379   1.157       .  T
C375        N377   1.157       .  T
C376        N378   1.157       .  T
O381       Zr393   2.431   1_455  S
O381       C1143   1.286       .  A
O382       C1143   1.288   1_655  A
C383       O1141   1.286       .  A
C383       O1142   1.288       .  A
C383        C557   1.481       .  S
O384        C386   1.288       .  A
O385       Zr420   2.434       .  S
O385        C386   1.288   1_565  A
C386        C487   1.486       .  S
O387       Zr396   2.433       .  S
O388      Zr1179   2.438       .  S
C389        C501   1.485       .  S
O390      Zr1343   2.427       .  S
O390        C392   1.286       .  A
O391       Zr420   2.435       .  S
O391        C392   1.288       .  A
C392        C543   1.483       .  S
Zr393      O1340   2.427       .  S
Zr393      O1159   2.368       .  S
Zr393      O1350   2.371       .  S
Zr393       O613   2.367   1_655  S
Zr393       O425   2.369   1_655  S
Zr393      O1154   2.433       .  S
Zr393       O585   2.434   1_655  S
O394      Zr1153   2.433       .  S
O394        H437   0.990       .  S
O395       Zr583   2.434   1_455  S
O395        H626   0.990   1_554  S
O395        H630   0.990   1_554  S
Zr396       O424   2.369       .  S
Zr396       O616   2.371       .  S
Zr396       O588   2.434       .  S
O397        H628   0.990       .  S
O397        H441   0.990       .  S
O398       Zr586   2.434       .  S
O398        H621   0.990   1_554  S
O399      Zr1153   2.368       .  S
O399       Zr799   2.382       .  S
O400      Zr1343   2.371       .  S
O400       Zr420   2.387       .  S
O400        H427   0.966       .  S
O401       Zr413   2.441       .  S
O402      Zr1180   2.435   1_455  S
O404      Zr1366   2.438       .  S
O404        C406   1.288       .  A
O405       Zr419   2.433       .  S
O405        C406   1.288       .  A
C406        C532   1.486       .  S
O407       Zr416   2.428       .  S
O407       C1169   1.286       .  A
O408       C1169   1.287       .  A
C409       O1167   1.286       .  A
C409       O1168   1.287       .  A
C409       C1278   1.477   1_655  S
O410        C412   1.287       .  A
O411       Zr419   2.431   1_455  S
O411        C412   1.288       .  A
C412        C476   1.482       .  S
Zr413       O615   2.370   1_554  S
Zr413       O423   2.369       .  S
Zr413       O415   2.436       .  S
O414        H624   0.990       .  S
O414        H629   0.990       .  S
O415        H435   0.990   1_554  S
Zr416      O1354   2.438   1_554  S
Zr416      O1372   2.365   1_554  S
Zr416      O1181   2.373       .  S
Zr416       O426   2.372       .  S
Zr416       O614   2.368   1_554  S
Zr416      O1177   2.434       .  S
Zr416       O608   2.435       .  S
O417      Zr1176   2.434   1_455  S
O417        H623   0.990   1_554  S
O418       Zr606   2.435       .  S
O418        H622   0.990       .  S
O418        H632   0.990       .  S
Zr419      O1148   2.438       .  S
Zr419       O779   2.382       .  S
Zr419       O422   2.385   1_655  S
Zr419      O1184   2.388       .  S
Zr420      O1162   2.435       .  S
Zr420       O801   2.390   1_565  S
Zr420      O1183   2.383       .  S
O421      Zr1176   2.373   1_455  S
O421       Zr800   2.390   1_455  S
O421        H429   0.966       .  S
O422      Zr1366   2.365   1_455  S
O423       Zr583   2.367   1_455  S
O423      Zr1180   2.383   1_455  S
O424       Zr606   2.368       .  S
O424      Zr1179   2.388       .  S
O424        H428   0.966       .  S
O425       Zr603   2.370       .  S
O425        H430   0.965       .  S
O426       Zr586   2.371       .  S
H431        O588   0.990       .  S
H432        O608   0.990       .  S
H433        O607   0.990       .  S
H434        O604   0.990       .  S
H436        O585   0.990       .  S
H438        O587   0.990       .  S
H439        O604   0.990       .  S
H440        O585   0.990       .  S
H442        O608   0.990       .  S
C443        C546   1.499       .  S
C443        C444   1.418       .  A
C443        C448   1.401       .  A
C444        C560   1.492       .  S
C444        C445   1.404       .  A
C445        C446   1.402       .  A
C445        H450   1.085       .  S
C446        C529   1.499       .  S
C446        C447   1.416       .  A
C447        C515   1.491       .  S
C447        C448   1.403       .  A
C448        H449   1.085       .  S
C451        C490   1.500   1_565  S
C451        C452   1.418       .  A
C451        C456   1.406       .  A
C452        C504   1.498       .  S
C452        C453   1.405       .  A
C453        C454   1.404       .  A
C453        H458   1.085       .  S
C454        C473   1.498       .  S
C454        C455   1.418       .  A
C455        C462   1.499       .  S
C455        C456   1.406       .  A
C456        H457   1.085       .  S
C459        C464   1.412       .  A
C460        C461   1.412       .  A
C460        C465   1.448       .  S
C461        C468   1.449       .  S
C462        C463   1.418       .  A
C463        C464   1.410       .  A
C463        C466   1.452       .  S
C464        C467   1.452       .  S
C465        N472   1.156       .  T
C466        N471   1.157       .  T
C467        N469   1.157       .  T
C468        N470   1.157       .  T
C473        C478   1.415       .  A
C474        C475   1.409       .  A
C474        C479   1.452       .  S
C475        C476   1.411       .  A
C475        C482   1.453       .  S
C477        C478   1.411       .  A
C477        C480   1.449       .  S
C478        C481   1.449       .  S
C479        N486   1.157       .  T
C480        N485   1.156       .  T
C481        N483   1.157       .  T
C482        N484   1.157       .  T
C487        C488   1.412   1_545  A
C488        C489   1.413       .  A
C488        C493   1.449       .  S
C489        C490   1.415   1_565  A
C489        C496   1.449       .  S
C491        C492   1.410       .  A
C491        C494   1.452       .  S
C492        C495   1.452       .  S
C493        N500   1.156       .  T
C494        N499   1.157       .  T
C495        N497   1.157       .  T
C496        N498   1.157       .  T
C501        C502   1.412       .  A
C502        C503   1.409       .  A
C502        C507   1.452       .  S
C503        C504   1.417       .  A
C503        C510   1.453       .  S
C505        C506   1.413       .  A
C505        C508   1.449       .  S
C506        C509   1.448       .  S
C507        N514   1.157       .  T
C508        N513   1.157       .  T
C509        N511   1.156       .  T
C510        N512   1.157       .  T
C515       C1276   1.418       .  A
C515        C520   1.415       .  A
C516       C1275   1.418       .  A
C516        C517   1.406       .  A
C516        C521   1.454       .  S
C517       C1278   1.411       .  A
C517        C524   1.453       .  S
C518       C1169   1.477       .  S
C518       C1277   1.411       .  A
C518        C519   1.409       .  A
C519        C520   1.409       .  A
C519        C522   1.449       .  S
C520        C523   1.449       .  S
C521        N528   1.158       .  T
C522        N527   1.156       .  T
C523        N525   1.157       .  T
C524        N526   1.157       .  T
C529       C1290   1.414       .  A
C529        C534   1.419       .  A
C530       C1289   1.414   1_455  A
C530        C531   1.412       .  A
C530        C535   1.449       .  S
C531        C532   1.412   1_455  A
C531        C538   1.448       .  S
C532       C1293   1.412       .  A
C533       C1292   1.412       .  A
C533        C534   1.409       .  A
C533        C536   1.453       .  S
C534        C537   1.453       .  S
C535        N542   1.157       .  T
C536        N541   1.157       .  T
C537        N539   1.157       .  T
C538        N540   1.156       .  T
C543       C1304   1.410       .  A
C543        C548   1.412       .  A
C544       C1303   1.410   1_455  A
C544        C545   1.412       .  A
C544        C549   1.449       .  S
C545       C1306   1.416   1_455  A
C545        C552   1.449       .  S
C546       C1305   1.416       .  A
C546        C547   1.420       .  A
C547        C548   1.408       .  A
C547        C550   1.453       .  S
C548        C551   1.454       .  S
C549        N556   1.156       .  T
C550        N555   1.157       .  T
C551        N553   1.157       .  T
C552        N554   1.157       .  T
C557        C558   1.411       .  A
C557       C1322   1.413       .  A
C558        C559   1.410       .  A
C558        C563   1.449       .  S
C559        C560   1.413       .  A
C559        C566   1.449       .  S
C560       C1321   1.417       .  A
C561       C1320   1.417       .  A
C561        C562   1.407       .  A
C561        C564   1.453       .  S
C562       C1317   1.413       .  A
C562        C565   1.452       .  S
C563        N570   1.156       .  T
C564        N569   1.157       .  T
C565        N567   1.157       .  T
C566        N568   1.157       .  T
O571       Zr583   2.431   1_456  S
O571       C1333   1.286       .  A
O572       C1333   1.288   1_655  A
C573       O1331   1.286       .  A
C573       O1332   1.288       .  A
C573        C747   1.481       .  S
O574        C576   1.288       .  A
O575       Zr610   2.434       .  S
O575        C576   1.288   1_565  A
C576        C677   1.486       .  S
O577       Zr586   2.433   1_556  S
O578      Zr1369   2.438       .  S
C579        C691   1.485       .  S
O580      Zr1153   2.427       .  S
O580        C582   1.286       .  A
O581       Zr610   2.435       .  S
O581        C582   1.288       .  A
C582        C733   1.483       .  S
Zr583      O1150   2.427       .  S
Zr583      O1349   2.368   1_554  S
Zr583      O1160   2.371       .  S
Zr583       O615   2.369   1_654  S
Zr583      O1344   2.433   1_554  S
O584      Zr1343   2.433   1_556  S
O584        H627   0.990       .  S
Zr586       O614   2.369   1_554  S
O587        H631   0.990       .  S
O589      Zr1343   2.368   1_556  S
O589       Zr989   2.382       .  S
O590      Zr1153   2.371       .  S
O590       Zr610   2.387       .  S
O590        H617   0.966       .  S
O591       Zr603   2.441       .  S
O592      Zr1370   2.435   1_455  S
O594      Zr1176   2.438   1_556  S
O594        C596   1.288       .  A
O595       Zr609   2.433       .  S
O595        C596   1.288       .  A
C596        C722   1.486       .  S
O597       Zr606   2.428       .  S
O597       C1359   1.286       .  A
O598       C1359   1.287       .  A
C599       O1357   1.286       .  A
C599       O1358   1.287       .  A
C599       C1468   1.477   1_655  S
O600        C602   1.287       .  A
O601       Zr609   2.431   1_455  S
O601        C602   1.288       .  A
C602        C666   1.482       .  S
Zr603       O613   2.369       .  S
Zr603       O605   2.436       .  S
O605        H625   0.990       .  S
Zr606      O1164   2.438       .  S
Zr606      O1182   2.365       .  S
Zr606      O1371   2.373       .  S
Zr606       O616   2.372       .  S
Zr606      O1367   2.434       .  S
O607      Zr1366   2.434   1_455  S
Zr609      O1338   2.438       .  S
Zr609       O969   2.382       .  S
Zr609       O612   2.385   1_655  S
Zr609      O1374   2.388       .  S
Zr610      O1352   2.435       .  S
Zr610       O991   2.390   1_565  S
Zr610      O1373   2.383       .  S
O611      Zr1366   2.373   1_455  S
O611       Zr990   2.390   1_455  S
O611        H619   0.966       .  S
O612      Zr1176   2.365   1_456  S
O613      Zr1370   2.383   1_455  S
O614      Zr1369   2.388       .  S
O614        H618   0.966       .  S
O615        H620   0.965       .  S
C633        C736   1.499       .  S
C633        C634   1.418       .  A
C633        C638   1.401       .  A
C634        C750   1.492       .  S
C634        C635   1.404       .  A
C635        C636   1.402       .  A
C635        H640   1.085       .  S
C636        C719   1.499       .  S
C636        C637   1.416       .  A
C637        C705   1.491       .  S
C637        C638   1.403       .  A
C638        H639   1.085       .  S
C641        C680   1.500   1_565  S
C641        C642   1.418       .  A
C641        C646   1.406       .  A
C642        C694   1.498       .  S
C642        C643   1.405       .  A
C643        C644   1.404       .  A
C643        H648   1.085       .  S
C644        C663   1.498       .  S
C644        C645   1.418       .  A
C645        C652   1.499       .  S
C645        C646   1.406       .  A
C646        H647   1.085       .  S
C649        C654   1.412       .  A
C650        C651   1.412       .  A
C650        C655   1.448       .  S
C651        C658   1.449       .  S
C652        C653   1.418       .  A
C653        C654   1.410       .  A
C653        C656   1.452       .  S
C654        C657   1.452       .  S
C655        N662   1.156       .  T
C656        N661   1.157       .  T
C657        N659   1.157       .  T
C658        N660   1.157       .  T
C663        C668   1.415       .  A
C664        C665   1.409       .  A
C664        C669   1.452       .  S
C665        C666   1.411       .  A
C665        C672   1.453       .  S
C667        C668   1.411       .  A
C667        C670   1.449       .  S
C668        C671   1.449       .  S
C669        N676   1.157       .  T
C670        N675   1.156       .  T
C671        N673   1.157       .  T
C672        N674   1.157       .  T
C677        C678   1.412   1_545  A
C678        C679   1.413       .  A
C678        C683   1.449       .  S
C679        C680   1.415   1_565  A
C679        C686   1.449       .  S
C681        C682   1.410       .  A
C681        C684   1.452       .  S
C682        C685   1.452       .  S
C683        N690   1.156       .  T
C684        N689   1.157       .  T
C685        N687   1.157       .  T
C686        N688   1.157       .  T
C691        C692   1.412       .  A
C692        C693   1.409       .  A
C692        C697   1.452       .  S
C693        C694   1.417       .  A
C693        C700   1.453       .  S
C695        C696   1.413       .  A
C695        C698   1.449       .  S
C696        C699   1.448       .  S
C697        N704   1.157       .  T
C698        N703   1.157       .  T
C699        N701   1.156       .  T
C700        N702   1.157       .  T
C705       C1466   1.418       .  A
C705        C710   1.415       .  A
C706       C1465   1.418       .  A
C706        C707   1.406       .  A
C706        C711   1.454       .  S
C707       C1468   1.411       .  A
C707        C714   1.453       .  S
C708       C1359   1.477       .  S
C708       C1467   1.411       .  A
C708        C709   1.409       .  A
C709        C710   1.409       .  A
C709        C712   1.449       .  S
C710        C713   1.449       .  S
C711        N718   1.158       .  T
C712        N717   1.156       .  T
C713        N715   1.157       .  T
C714        N716   1.157       .  T
C719       C1480   1.414       .  A
C719        C724   1.419       .  A
C720       C1479   1.414   1_455  A
C720        C721   1.412       .  A
C720        C725   1.449       .  S
C721        C722   1.412   1_455  A
C721        C728   1.448       .  S
C722       C1483   1.412       .  A
C723       C1482   1.412       .  A
C723        C724   1.409       .  A
C723        C726   1.453       .  S
C724        C727   1.453       .  S
C725        N732   1.157       .  T
C726        N731   1.157       .  T
C727        N729   1.157       .  T
C728        N730   1.156       .  T
C733       C1494   1.410       .  A
C733        C738   1.412       .  A
C734       C1493   1.410   1_455  A
C734        C735   1.412       .  A
C734        C739   1.449       .  S
C735       C1496   1.416   1_455  A
C735        C742   1.449       .  S
C736       C1495   1.416       .  A
C736        C737   1.420       .  A
C737        C738   1.408       .  A
C737        C740   1.453       .  S
C738        C741   1.454       .  S
C739        N746   1.156       .  T
C740        N745   1.157       .  T
C741        N743   1.157       .  T
C742        N744   1.157       .  T
C747        C748   1.411       .  A
C747       C1512   1.413       .  A
C748        C749   1.410       .  A
C748        C753   1.449       .  S
C749        C750   1.413       .  A
C749        C756   1.449       .  S
C750       C1511   1.417       .  A
C751       C1510   1.417       .  A
C751        C752   1.407       .  A
C751        C754   1.453       .  S
C752       C1507   1.413       .  A
C752        C755   1.452       .  S
C753        N760   1.156       .  T
C754        N759   1.157       .  T
C755        N757   1.157       .  T
C756        N758   1.157       .  T
O761       Zr773   2.431       .  S
O762      Zr1179   2.432       .  S
C763        C937   1.481       .  S
O764      Zr1346   2.438       .  S
O764        C766   1.288       .  A
O765       Zr800   2.434       .  S
O765        C766   1.288       .  A
C766        C867   1.486       .  S
O767       Zr776   2.433       .  S
O767       C1149   1.287       .  A
O768       C1149   1.289       .  A
C769       O1147   1.287       .  A
C769       O1148   1.289       .  A
C769        C881   1.485       .  S
O770        C772   1.286       .  A
O771       Zr800   2.435       .  S
O771        C772   1.288       .  A
C772        C923   1.483       .  S
Zr773       O993   2.367       .  S
Zr773       O805   2.369       .  S
Zr773       O965   2.434       .  S
O774        H817   0.990       .  S
O775       Zr963   2.434       .  S
O775       H1006   0.990   1_554  S
O775       H1010   0.990   1_554  S
Zr776      O1334   2.438   1_565  S
Zr776      O1350   2.366       .  S
Zr776      O1159   2.370       .  S
Zr776       O804   2.369   1_565  S
Zr776       O996   2.371   1_565  S
Zr776      O1157   2.435       .  S
Zr776       O968   2.434   1_565  S
O777      Zr1156   2.435       .  S
O777       H1008   0.990       .  S
O777        H821   0.990       .  S
O778       Zr966   2.434   1_545  S
O778       H1001   0.990   1_554  S
O779      Zr1156   2.370       .  S
O780      Zr1346   2.366       .  S
O780       Zr800   2.387       .  S
O780        H807   0.966       .  S
O781       Zr793   2.441       .  S
O781       C1163   1.288       .  A
O782       C1163   1.288       .  A
C783       O1161   1.288       .  A
C783       O1162   1.288       .  A
C783       C1219   1.487       .  S
O784        C786   1.288       .  A
O785       Zr799   2.433   1_545  S
O785        C786   1.288       .  A
C786        C912   1.486       .  S
O787       Zr796   2.428       .  S
O788      Zr1180   2.428   1_545  S
O790      Zr1363   2.434   1_545  S
O790        C792   1.287   1_545  A
O791       Zr799   2.431       .  S
O791        C792   1.288       .  A
C792        C856   1.482   1_565  S
Zr793      O1360   2.434   1_554  S
Zr793      O1181   2.365       .  S
Zr793      O1372   2.372   1_554  S
Zr793       O995   2.370   1_554  S
Zr793       O803   2.369       .  S
Zr793      O1364   2.436       .  S
Zr793       O795   2.436       .  S
O794      Zr1363   2.436   1_545  S
O794       H1004   0.990       .  S
O794       H1009   0.990       .  S
O795        H815   0.990   1_554  S
Zr796       O806   2.372       .  S
Zr796       O994   2.368   1_554  S
Zr796       O988   2.435       .  S
O797       H1003   0.990   1_554  S
O798       Zr986   2.435       .  S
O798       H1002   0.990       .  S
O798       H1012   0.990       .  S
Zr799      O1142   2.432       .  S
Zr799       O802   2.385   1_565  S
Zr799      O1185   2.391       .  S
Zr800      O1168   2.428       .  S
Zr800      O1186   2.388       .  S
O801      Zr1173   2.365   1_545  S
O801        H809   0.966       .  S
O802      Zr1363   2.372   1_545  S
O803       Zr963   2.367       .  S
O804       Zr986   2.368       .  S
O804        H808   0.966       .  S
O805       Zr983   2.370       .  S
O805      Zr1179   2.391       .  S
O805        H810   0.965       .  S
O806       Zr966   2.371   1_545  S
O806      Zr1180   2.388   1_545  S
H811        O968   0.990       .  S
H812        O988   0.990       .  S
H813        O987   0.990       .  S
H814        O984   0.990       .  S
H816        O965   0.990       .  S
H818        O967   0.990       .  S
H819        O984   0.990       .  S
H820        O965   0.990       .  S
H822        O988   0.990       .  S
C823        C926   1.499   1_455  S
C823        C824   1.418       .  A
C823        C828   1.401       .  A
C824        C940   1.492       .  S
C824        C825   1.404       .  A
C825        C826   1.402       .  A
C825        H830   1.085       .  S
C826        C909   1.499   1_455  S
C826        C827   1.416       .  A
C827        C895   1.491       .  S
C827        C828   1.403       .  A
C828        H829   1.085       .  S
C831        C870   1.500       .  S
C831        C832   1.418       .  A
C831        C836   1.406       .  A
C832        C884   1.498       .  S
C832        C833   1.405       .  A
C833        C834   1.404       .  A
C833        H838   1.085       .  S
C834        C853   1.498       .  S
C834        C835   1.418       .  A
C835        C842   1.499       .  S
C835        C836   1.406       .  A
C836        H837   1.085       .  S
C839       C1163   1.487       .  S
C839       C1220   1.411       .  A
C839        C844   1.412       .  A
C840       C1219   1.411   1_545  A
C840        C841   1.412       .  A
C840        C845   1.448       .  S
C841       C1222   1.415   1_545  A
C841        C848   1.449       .  S
C842       C1221   1.415       .  A
C842        C843   1.418       .  A
C843        C844   1.410       .  A
C843        C846   1.452       .  S
C844        C847   1.452       .  S
C845        N852   1.156       .  T
C846        N851   1.157       .  T
C847        N849   1.157       .  T
C848        N850   1.157       .  T
C853       C1234   1.418       .  A
C853        C858   1.415       .  A
C854       C1233   1.418   1_545  A
C854        C855   1.409       .  A
C854        C859   1.452       .  S
C855        C856   1.411       .  A
C855        C862   1.453       .  S
C856       C1237   1.410   1_545  A
C857       C1236   1.410       .  A
C857        C858   1.411       .  A
C857        C860   1.449       .  S
C858        C861   1.449       .  S
C859        N866   1.157       .  T
C860        N865   1.156       .  T
C861        N863   1.157       .  T
C862        N864   1.157       .  T
C867        C868   1.412       .  A
C867       C1252   1.412       .  A
C868        C869   1.413       .  A
C868        C873   1.449       .  S
C869        C870   1.415       .  A
C869        C876   1.449       .  S
C870       C1251   1.418       .  A
C871       C1250   1.418       .  A
C871        C872   1.410       .  A
C871        C874   1.452       .  S
C872       C1247   1.412       .  A
C872        C875   1.452       .  S
C873        N880   1.156       .  T
C874        N879   1.157       .  T
C875        N877   1.157       .  T
C876        N878   1.157       .  T
C881        C882   1.412       .  A
C881       C1266   1.411       .  A
C882        C883   1.409       .  A
C882        C887   1.452       .  S
C883        C884   1.417       .  A
C883        C890   1.453       .  S
C884       C1265   1.414       .  A
C885       C1264   1.414   1_545  A
C885        C886   1.413       .  A
C885        C888   1.449       .  S
C886       C1261   1.411   1_545  A
C886        C889   1.448       .  S
C887        N894   1.157       .  T
C888        N893   1.157       .  T
C889        N891   1.156       .  T
C890        N892   1.157       .  T
C895        C900   1.415   1_455  A
C896        C897   1.406       .  A
C896        C901   1.454       .  S
C897        C904   1.453       .  S
C898        C899   1.409   1_455  A
C899        C900   1.409       .  A
C899        C902   1.449       .  S
C900        C903   1.449       .  S
C901        N908   1.158       .  T
C902        N907   1.156       .  T
C903        N905   1.157       .  T
C904        N906   1.157       .  T
C909        C914   1.419       .  A
C910        C911   1.412       .  A
C910        C915   1.449       .  S
C911        C912   1.412       .  A
C911        C918   1.448       .  S
C913        C914   1.409       .  A
C913        C916   1.453       .  S
C914        C917   1.453       .  S
C915        N922   1.157       .  T
C916        N921   1.157       .  T
C917        N919   1.157       .  T
C918        N920   1.156       .  T
C923        C928   1.412       .  A
C924        C925   1.412       .  A
C924        C929   1.449       .  S
C925        C932   1.449       .  S
C926        C927   1.420       .  A
C927        C928   1.408       .  A
C927        C930   1.453       .  S
C928        C931   1.454       .  S
C929        N936   1.156       .  T
C930        N935   1.157       .  T
C931        N933   1.157       .  T
C932        N934   1.157       .  T
C937        C938   1.411   1_455  A
C938        C939   1.410       .  A
C938        C943   1.449       .  S
C939        C940   1.413   1_655  A
C939        C946   1.449       .  S
C941        C942   1.407       .  A
C941        C944   1.453       .  S
C942        C945   1.452       .  S
C943        N950   1.156       .  T
C944        N949   1.157       .  T
C945        N947   1.157       .  T
C946        N948   1.157       .  T
O951       Zr963   2.431   1_556  S
O952      Zr1369   2.432       .  S
C953       C1127   1.481       .  S
O954      Zr1156   2.438       .  S
O954        C956   1.288       .  A
O955       Zr990   2.434       .  S
O955        C956   1.288       .  A
C956       C1057   1.486       .  S
O957       Zr966   2.433   1_556  S
O957       C1339   1.287       .  A
O958       C1339   1.289       .  A
C959       O1337   1.287       .  A
C959       O1338   1.289       .  A
C959       C1071   1.485       .  S
O960        C962   1.286       .  A
O961       Zr990   2.435       .  S
O961        C962   1.288       .  A
C962       C1113   1.483       .  S
Zr963       O995   2.369   1_554  S
O964       H1007   0.990       .  S
Zr966      O1144   2.438   1_565  S
Zr966      O1160   2.366       .  S
Zr966      O1349   2.370   1_554  S
Zr966       O994   2.369   1_564  S
Zr966      O1347   2.435       .  S
O967      Zr1346   2.435       .  S
O967       H1011   0.990       .  S
O969      Zr1346   2.370   1_556  S
O970      Zr1156   2.366       .  S
O970       Zr990   2.387       .  S
O970        H997   0.966       .  S
O971       Zr983   2.441       .  S
O971       C1353   1.288       .  A
O972       C1353   1.288       .  A
C973       O1351   1.288       .  A
C973       O1352   1.288       .  A
C973       C1409   1.487       .  S
O974        C976   1.288       .  A
O975       Zr989   2.433   1_545  S
O975        C976   1.288       .  A
C976       C1102   1.486       .  S
O977       Zr986   2.428       .  S
O978      Zr1370   2.428   1_545  S
O980      Zr1173   2.434   1_546  S
O980        C982   1.287   1_545  A
O981       Zr989   2.431       .  S
O981        C982   1.288       .  A
C982       C1046   1.482   1_565  S
Zr983      O1170   2.434       .  S
Zr983      O1371   2.365       .  S
Zr983      O1182   2.372       .  S
Zr983       O993   2.369       .  S
Zr983      O1174   2.436       .  S
Zr983       O985   2.436       .  S
O984      Zr1173   2.436   1_545  S
O985       H1005   0.990       .  S
Zr986       O996   2.372       .  S
Zr989      O1332   2.432       .  S
Zr989       O992   2.385   1_565  S
Zr989      O1375   2.391       .  S
Zr990      O1358   2.428       .  S
Zr990      O1376   2.388       .  S
O991      Zr1363   2.365   1_545  S
O991        H999   0.966       .  S
O992      Zr1173   2.372   1_546  S
O994        H998   0.966       .  S
O995      Zr1369   2.391       .  S
O995       H1000   0.965       .  S
O996      Zr1370   2.388   1_545  S
C1013      C1116   1.499   1_455  S
C1013      C1014   1.418       .  A
C1013      C1018   1.401       .  A
C1014      C1130   1.492       .  S
C1014      C1015   1.404       .  A
C1015      C1016   1.402       .  A
C1015      H1020   1.085       .  S
C1016      C1099   1.499   1_455  S
C1016      C1017   1.416       .  A
C1017      C1085   1.491       .  S
C1017      C1018   1.403       .  A
C1018      H1019   1.085       .  S
C1021      C1060   1.500       .  S
C1021      C1022   1.418       .  A
C1021      C1026   1.406       .  A
C1022      C1074   1.498       .  S
C1022      C1023   1.405       .  A
C1023      C1024   1.404       .  A
C1023      H1028   1.085       .  S
C1024      C1043   1.498       .  S
C1024      C1025   1.418       .  A
C1025      C1032   1.499       .  S
C1025      C1026   1.406       .  A
C1026      H1027   1.085       .  S
C1029      C1353   1.487       .  S
C1029      C1410   1.411       .  A
C1029      C1034   1.412       .  A
C1030      C1409   1.411   1_545  A
C1030      C1031   1.412       .  A
C1030      C1035   1.448       .  S
C1031      C1412   1.415   1_545  A
C1031      C1038   1.449       .  S
C1032      C1411   1.415       .  A
C1032      C1033   1.418       .  A
C1033      C1034   1.410       .  A
C1033      C1036   1.452       .  S
C1034      C1037   1.452       .  S
C1035      N1042   1.156       .  T
C1036      N1041   1.157       .  T
C1037      N1039   1.157       .  T
C1038      N1040   1.157       .  T
C1043      C1424   1.418       .  A
C1043      C1048   1.415       .  A
C1044      C1423   1.418   1_545  A
C1044      C1045   1.409       .  A
C1044      C1049   1.452       .  S
C1045      C1046   1.411       .  A
C1045      C1052   1.453       .  S
C1046      C1427   1.410   1_545  A
C1047      C1426   1.410       .  A
C1047      C1048   1.411       .  A
C1047      C1050   1.449       .  S
C1048      C1051   1.449       .  S
C1049      N1056   1.157       .  T
C1050      N1055   1.156       .  T
C1051      N1053   1.157       .  T
C1052      N1054   1.157       .  T
C1057      C1058   1.412       .  A
C1057      C1442   1.412       .  A
C1058      C1059   1.413       .  A
C1058      C1063   1.449       .  S
C1059      C1060   1.415       .  A
C1059      C1066   1.449       .  S
C1060      C1441   1.418       .  A
C1061      C1440   1.418       .  A
C1061      C1062   1.410       .  A
C1061      C1064   1.452       .  S
C1062      C1437   1.412       .  A
C1062      C1065   1.452       .  S
C1063      N1070   1.156       .  T
C1064      N1069   1.157       .  T
C1065      N1067   1.157       .  T
C1066      N1068   1.157       .  T
C1071      C1072   1.412       .  A
C1071      C1456   1.411       .  A
C1072      C1073   1.409       .  A
C1072      C1077   1.452       .  S
C1073      C1074   1.417       .  A
C1073      C1080   1.453       .  S
C1074      C1455   1.414       .  A
C1075      C1454   1.414   1_545  A
C1075      C1076   1.413       .  A
C1075      C1078   1.449       .  S
C1076      C1451   1.411   1_545  A
C1076      C1079   1.448       .  S
C1077      N1084   1.157       .  T
C1078      N1083   1.157       .  T
C1079      N1081   1.156       .  T
C1080      N1082   1.157       .  T
C1085      C1090   1.415   1_455  A
C1086      C1087   1.406       .  A
C1086      C1091   1.454       .  S
C1087      C1094   1.453       .  S
C1088      C1089   1.409   1_455  A
C1089      C1090   1.409       .  A
C1089      C1092   1.449       .  S
C1090      C1093   1.449       .  S
C1091      N1098   1.158       .  T
C1092      N1097   1.156       .  T
C1093      N1095   1.157       .  T
C1094      N1096   1.157       .  T
C1099      C1104   1.419       .  A
C1100      C1101   1.412       .  A
C1100      C1105   1.449       .  S
C1101      C1102   1.412       .  A
C1101      C1108   1.448       .  S
C1103      C1104   1.409       .  A
C1103      C1106   1.453       .  S
C1104      C1107   1.453       .  S
C1105      N1112   1.157       .  T
C1106      N1111   1.157       .  T
C1107      N1109   1.157       .  T
C1108      N1110   1.156       .  T
C1113      C1118   1.412       .  A
C1114      C1115   1.412       .  A
C1114      C1119   1.449       .  S
C1115      C1122   1.449       .  S
C1116      C1117   1.420       .  A
C1117      C1118   1.408       .  A
C1117      C1120   1.453       .  S
C1118      C1121   1.454       .  S
C1119      N1126   1.156       .  T
C1120      N1125   1.157       .  T
C1121      N1123   1.157       .  T
C1122      N1124   1.157       .  T
C1127      C1128   1.411   1_455  A
C1128      C1129   1.410       .  A
C1128      C1133   1.449       .  S
C1129      C1130   1.413   1_655  A
C1129      C1136   1.449       .  S
C1131      C1132   1.407       .  A
C1131      C1134   1.453       .  S
C1132      C1135   1.452       .  S
C1133      N1140   1.156       .  T
C1134      N1139   1.157       .  T
C1135      N1137   1.157       .  T
C1136      N1138   1.157       .  T
O1141     Zr1153   2.431       .  S
C1143      C1317   1.481       .  S
O1144      C1146   1.288       .  A
O1145     Zr1180   2.434       .  S
O1145      C1146   1.288   1_565  A
C1146      C1247   1.486       .  S
O1147     Zr1156   2.433       .  S
C1149      C1261   1.485       .  S
O1150      C1152   1.286       .  A
O1151     Zr1180   2.435       .  S
O1151      C1152   1.288       .  A
C1152      C1303   1.483       .  S
Zr1153     O1373   2.367       .  S
Zr1153     O1185   2.369       .  S
Zr1153     O1345   2.434       .  S
O1154      H1197   0.990       .  S
O1155     Zr1343   2.434       .  S
O1155      H1386   0.990   1_554  S
O1155      H1390   0.990   1_554  S
Zr1156     O1184   2.369       .  S
Zr1156     O1376   2.371       .  S
Zr1156     O1348   2.434       .  S
O1157      H1388   0.990       .  S
O1157      H1201   0.990       .  S
O1158     Zr1346   2.434       .  S
O1158      H1381   0.990   1_554  S
O1160     Zr1180   2.387       .  S
O1160      H1187   0.966       .  S
O1161     Zr1173   2.441       .  S
O1164      C1166   1.288       .  A
O1165     Zr1179   2.433       .  S
O1165      C1166   1.288       .  A
C1166      C1292   1.486       .  S
O1167     Zr1176   2.428       .  S
O1170      C1172   1.287       .  A
O1171     Zr1179   2.431       .  S
O1171      C1172   1.288       .  A
C1172      C1236   1.482       .  S
Zr1173     O1375   2.370   1_554  S
Zr1173     O1183   2.369       .  S
Zr1173     O1175   2.436       .  S
O1174      H1384   0.990       .  S
O1174      H1389   0.990       .  S
O1175      H1195   0.990   1_554  S
Zr1176     O1186   2.372       .  S
Zr1176     O1374   2.368   1_554  S
Zr1176     O1368   2.435       .  S
O1177      H1383   0.990   1_554  S
O1178     Zr1366   2.435       .  S
O1178      H1382   0.990       .  S
O1178      H1392   0.990       .  S
Zr1179     O1182   2.385       .  S
O1181      H1189   0.966       .  S
O1183     Zr1343   2.367       .  S
O1184     Zr1366   2.368       .  S
O1184      H1188   0.966       .  S
O1185     Zr1363   2.370       .  S
O1185      H1190   0.965       .  S
O1186     Zr1346   2.371       .  S
H1191      O1348   0.990       .  S
H1192      O1368   0.990       .  S
H1193      O1367   0.990       .  S
H1194      O1364   0.990       .  S
H1196      O1345   0.990       .  S
H1198      O1347   0.990       .  S
H1199      O1364   0.990       .  S
H1200      O1345   0.990       .  S
H1202      O1368   0.990       .  S
C1203      C1306   1.499   1_455  S
C1203      C1204   1.418       .  A
C1203      C1208   1.401       .  A
C1204      C1320   1.492       .  S
C1204      C1205   1.404       .  A
C1205      C1206   1.402       .  A
C1205      H1210   1.085       .  S
C1206      C1289   1.499   1_455  S
C1206      C1207   1.416       .  A
C1207      C1275   1.491       .  S
C1207      C1208   1.403       .  A
C1208      H1209   1.085       .  S
C1211      C1250   1.500   1_565  S
C1211      C1212   1.418       .  A
C1211      C1216   1.406       .  A
C1212      C1264   1.498       .  S
C1212      C1213   1.405       .  A
C1213      C1214   1.404       .  A
C1213      H1218   1.085       .  S
C1214      C1233   1.498       .  S
C1214      C1215   1.418       .  A
C1215      C1222   1.499       .  S
C1215      C1216   1.406       .  A
C1216      H1217   1.085       .  S
C1219      C1224   1.412       .  A
C1220      C1221   1.412       .  A
C1220      C1225   1.448       .  S
C1221      C1228   1.449       .  S
C1222      C1223   1.418       .  A
C1223      C1224   1.410       .  A
C1223      C1226   1.452       .  S
C1224      C1227   1.452       .  S
C1225      N1232   1.156       .  T
C1226      N1231   1.157       .  T
C1227      N1229   1.157       .  T
C1228      N1230   1.157       .  T
C1233      C1238   1.415       .  A
C1234      C1235   1.409       .  A
C1234      C1239   1.452       .  S
C1235      C1236   1.411       .  A
C1235      C1242   1.453       .  S
C1237      C1238   1.411       .  A
C1237      C1240   1.449       .  S
C1238      C1241   1.449       .  S
C1239      N1246   1.157       .  T
C1240      N1245   1.156       .  T
C1241      N1243   1.157       .  T
C1242      N1244   1.157       .  T
C1247      C1248   1.412   1_545  A
C1248      C1249   1.413       .  A
C1248      C1253   1.449       .  S
C1249      C1250   1.415   1_565  A
C1249      C1256   1.449       .  S
C1251      C1252   1.410       .  A
C1251      C1254   1.452       .  S
C1252      C1255   1.452       .  S
C1253      N1260   1.156       .  T
C1254      N1259   1.157       .  T
C1255      N1257   1.157       .  T
C1256      N1258   1.157       .  T
C1261      C1262   1.412       .  A
C1262      C1263   1.409       .  A
C1262      C1267   1.452       .  S
C1263      C1264   1.417       .  A
C1263      C1270   1.453       .  S
C1265      C1266   1.413       .  A
C1265      C1268   1.449       .  S
C1266      C1269   1.448       .  S
C1267      N1274   1.157       .  T
C1268      N1273   1.157       .  T
C1269      N1271   1.156       .  T
C1270      N1272   1.157       .  T
C1275      C1280   1.415   1_455  A
C1276      C1277   1.406       .  A
C1276      C1281   1.454       .  S
C1277      C1284   1.453       .  S
C1278      C1279   1.409   1_455  A
C1279      C1280   1.409       .  A
C1279      C1282   1.449       .  S
C1280      C1283   1.449       .  S
C1281      N1288   1.158       .  T
C1282      N1287   1.156       .  T
C1283      N1285   1.157       .  T
C1284      N1286   1.157       .  T
C1289      C1294   1.419       .  A
C1290      C1291   1.412       .  A
C1290      C1295   1.449       .  S
C1291      C1292   1.412       .  A
C1291      C1298   1.448       .  S
C1293      C1294   1.409       .  A
C1293      C1296   1.453       .  S
C1294      C1297   1.453       .  S
C1295      N1302   1.157       .  T
C1296      N1301   1.157       .  T
C1297      N1299   1.157       .  T
C1298      N1300   1.156       .  T
C1303      C1308   1.412       .  A
C1304      C1305   1.412       .  A
C1304      C1309   1.449       .  S
C1305      C1312   1.449       .  S
C1306      C1307   1.420       .  A
C1307      C1308   1.408       .  A
C1307      C1310   1.453       .  S
C1308      C1311   1.454       .  S
C1309      N1316   1.156       .  T
C1310      N1315   1.157       .  T
C1311      N1313   1.157       .  T
C1312      N1314   1.157       .  T
C1317      C1318   1.411   1_455  A
C1318      C1319   1.410       .  A
C1318      C1323   1.449       .  S
C1319      C1320   1.413   1_655  A
C1319      C1326   1.449       .  S
C1321      C1322   1.407       .  A
C1321      C1324   1.453       .  S
C1322      C1325   1.452       .  S
C1323      N1330   1.156       .  T
C1324      N1329   1.157       .  T
C1325      N1327   1.157       .  T
C1326      N1328   1.157       .  T
O1331     Zr1343   2.431   1_556  S
C1333      C1507   1.481       .  S
O1334      C1336   1.288       .  A
O1335     Zr1370   2.434       .  S
O1335      C1336   1.288   1_565  A
C1336      C1437   1.486       .  S
O1337     Zr1346   2.433   1_556  S
C1339      C1451   1.485       .  S
O1340      C1342   1.286       .  A
O1341     Zr1370   2.435       .  S
O1341      C1342   1.288       .  A
C1342      C1493   1.483       .  S
Zr1343     O1375   2.369   1_554  S
O1344      H1387   0.990       .  S
Zr1346     O1374   2.369   1_554  S
O1347      H1391   0.990       .  S
O1350     Zr1370   2.387       .  S
O1350      H1377   0.966       .  S
O1351     Zr1363   2.441       .  S
O1354      C1356   1.288       .  A
O1355     Zr1369   2.433       .  S
O1355      C1356   1.288       .  A
C1356      C1482   1.486       .  S
O1357     Zr1366   2.428       .  S
O1360      C1362   1.287       .  A
O1361     Zr1369   2.431       .  S
O1361      C1362   1.288       .  A
C1362      C1426   1.482       .  S
Zr1363     O1373   2.369       .  S
Zr1363     O1365   2.436       .  S
O1365      H1385   0.990       .  S
Zr1366     O1376   2.372       .  S
Zr1369     O1372   2.385       .  S
O1371      H1379   0.966       .  S
O1374      H1378   0.966       .  S
O1375      H1380   0.965       .  S
C1393      C1496   1.499   1_455  S
C1393      C1394   1.418       .  A
C1393      C1398   1.401       .  A
C1394      C1510   1.492       .  S
C1394      C1395   1.404       .  A
C1395      C1396   1.402       .  A
C1395      H1400   1.085       .  S
C1396      C1479   1.499   1_455  S
C1396      C1397   1.416       .  A
C1397      C1465   1.491       .  S
C1397      C1398   1.403       .  A
C1398      H1399   1.085       .  S
C1401      C1440   1.500   1_565  S
C1401      C1402   1.418       .  A
C1401      C1406   1.406       .  A
C1402      C1454   1.498       .  S
C1402      C1403   1.405       .  A
C1403      C1404   1.404       .  A
C1403      H1408   1.085       .  S
C1404      C1423   1.498       .  S
C1404      C1405   1.418       .  A
C1405      C1412   1.499       .  S
C1405      C1406   1.406       .  A
C1406      H1407   1.085       .  S
C1409      C1414   1.412       .  A
C1410      C1411   1.412       .  A
C1410      C1415   1.448       .  S
C1411      C1418   1.449       .  S
C1412      C1413   1.418       .  A
C1413      C1414   1.410       .  A
C1413      C1416   1.452       .  S
C1414      C1417   1.452       .  S
C1415      N1422   1.156       .  T
C1416      N1421   1.157       .  T
C1417      N1419   1.157       .  T
C1418      N1420   1.157       .  T
C1423      C1428   1.415       .  A
C1424      C1425   1.409       .  A
C1424      C1429   1.452       .  S
C1425      C1426   1.411       .  A
C1425      C1432   1.453       .  S
C1427      C1428   1.411       .  A
C1427      C1430   1.449       .  S
C1428      C1431   1.449       .  S
C1429      N1436   1.157       .  T
C1430      N1435   1.156       .  T
C1431      N1433   1.157       .  T
C1432      N1434   1.157       .  T
C1437      C1438   1.412   1_545  A
C1438      C1439   1.413       .  A
C1438      C1443   1.449       .  S
C1439      C1440   1.415   1_565  A
C1439      C1446   1.449       .  S
C1441      C1442   1.410       .  A
C1441      C1444   1.452       .  S
C1442      C1445   1.452       .  S
C1443      N1450   1.156       .  T
C1444      N1449   1.157       .  T
C1445      N1447   1.157       .  T
C1446      N1448   1.157       .  T
C1451      C1452   1.412       .  A
C1452      C1453   1.409       .  A
C1452      C1457   1.452       .  S
C1453      C1454   1.417       .  A
C1453      C1460   1.453       .  S
C1455      C1456   1.413       .  A
C1455      C1458   1.449       .  S
C1456      C1459   1.448       .  S
C1457      N1464   1.157       .  T
C1458      N1463   1.157       .  T
C1459      N1461   1.156       .  T
C1460      N1462   1.157       .  T
C1465      C1470   1.415   1_455  A
C1466      C1467   1.406       .  A
C1466      C1471   1.454       .  S
C1467      C1474   1.453       .  S
C1468      C1469   1.409   1_455  A
C1469      C1470   1.409       .  A
C1469      C1472   1.449       .  S
C1470      C1473   1.449       .  S
C1471      N1478   1.158       .  T
C1472      N1477   1.156       .  T
C1473      N1475   1.157       .  T
C1474      N1476   1.157       .  T
C1479      C1484   1.419       .  A
C1480      C1481   1.412       .  A
C1480      C1485   1.449       .  S
C1481      C1482   1.412       .  A
C1481      C1488   1.448       .  S
C1483      C1484   1.409       .  A
C1483      C1486   1.453       .  S
C1484      C1487   1.453       .  S
C1485      N1492   1.157       .  T
C1486      N1491   1.157       .  T
C1487      N1489   1.157       .  T
C1488      N1490   1.156       .  T
C1493      C1498   1.412       .  A
C1494      C1495   1.412       .  A
C1494      C1499   1.449       .  S
C1495      C1502   1.449       .  S
C1496      C1497   1.420       .  A
C1497      C1498   1.408       .  A
C1497      C1500   1.453       .  S
C1498      C1501   1.454       .  S
C1499      N1506   1.156       .  T
C1500      N1505   1.157       .  T
C1501      N1503   1.157       .  T
C1502      N1504   1.157       .  T
C1507      C1508   1.411   1_455  A
C1508      C1509   1.410       .  A
C1508      C1513   1.449       .  S
C1509      C1510   1.413   1_655  A
C1509      C1516   1.449       .  S
C1511      C1512   1.407       .  A
C1511      C1514   1.453       .  S
C1512      C1515   1.452       .  S
C1513      N1520   1.156       .  T
C1514      N1519   1.157       .  T
C1515      N1517   1.157       .  T
C1516      N1518   1.157       .  T
