geometry optimzed in LAMMPS
_audit_creation_date              2020-12-01 
_audit_creation_method            'lammps2cif' 
_symmetry_space_group_name_H-M    'P1' 
_symmetry_Int_Tables_number       1 
_symmetry_cell_setting            triclinic 
loop_ 
_symmetry_equiv_pos_as_xyz 
  x,y,z 
_cell_length_a                    47.95592904 
_cell_length_b                    47.770919907227515 
_cell_length_c                    47.87818374113386 
_cell_angle_alpha                 90.02781854622408 
_cell_angle_beta                  89.9280394244315 
_cell_angle_gamma                 90.08625092477358 
loop_ 
_atom_site_label 
_atom_site_type_symbol 
_atom_site_fract_x 
_atom_site_fract_y 
_atom_site_fract_z 
_atom_site_charge 
Fe1        Fe  0.22948955  0.00176803  0.18665616     1.65800
Fe2        Fe  0.29990638  0.00155620  0.18326349     1.73200
Fe3        Fe  0.26739753  0.00030660  0.24703263     1.54400
O4          O  0.23401754  0.02795746  0.25246772    -0.81000
O5          O  0.31492980  0.96701107  0.20332854    -0.79300
O6          O  0.21494891  0.03439956  0.21043033    -0.83500
O7          O  0.21226644  0.97304129  0.21345154    -0.78300
O8          O  0.29467968  0.03394913  0.24852806    -0.80100
O9          O  0.28512739  0.97386447  0.15315851    -0.82900
C10         C  0.21862776  0.96101950  0.23616346     0.97900
C11         C  0.21643633  0.03961923  0.23632960     1.05300
O12         O  0.26555885  0.00123091  0.20578944    -1.11800
O13         O  0.28765775  0.03699788  0.16165530    -0.74300
O14         O  0.24186156  0.03110900  0.15755409    -0.77800
O15         O  0.24026601  0.96700320  0.25013518    -0.78400
C16         C  0.26404751  0.04475656  0.15258462     0.96800
O17         O  0.23984953  0.96867863  0.16142321    -0.76400
O18         O  0.32040351  0.02793848  0.21030497    -0.81600
C19         C  0.31476544  0.95922737  0.22860761     0.99400
C20         C  0.31562048  0.04001167  0.23341293     1.05400
O21         O  0.30015992  0.97148621  0.24720908    -0.77200
C22         C  0.26215627  0.96117685  0.14945326     1.03700
Fe23       Fe  0.77460016  0.00396084  0.18437324     1.65800
Fe24       Fe  0.70492439  0.00440660  0.17754761     1.73200
Fe25       Fe  0.73434009  0.00645745  0.24234835     1.54400
O26         O  0.76069763  0.97291092  0.24903704    -0.81000
O27         O  0.68286663  0.03197529  0.20211668    -0.79300
O28         O  0.79212944  0.98047459  0.21564260    -0.83500
O29         O  0.78630220  0.04025542  0.20403862    -0.78300
O30         O  0.70085571  0.97832092  0.24255499    -0.80100
O31         O  0.71902502  0.03890467  0.15614760    -0.82900
C32         C  0.78485544  0.04607603  0.22990446     0.97900
C33         C  0.78421741  0.96838970  0.23780455     1.05300
O34         O  0.73789105  0.00490214  0.20167114    -1.11800
O35         O  0.72204062  0.97603258  0.14931684    -0.74300
O36         O  0.76447495  0.96692745  0.16552422    -0.77800
O37         O  0.76794672  0.03394908  0.24656400    -0.78400
C38         C  0.74289294  0.95989310  0.15199011     0.96800
O39         O  0.76341022  0.02787856  0.14998631    -0.76400
O40         O  0.68844774  0.97070810  0.19826020    -0.81600
C41         C  0.68787495  0.04607820  0.22397241     0.99400
C42         C  0.68706627  0.96487919  0.22409402     1.05400
O43         O  0.70826072  0.04069148  0.23996432    -0.77200
C44         C  0.74281609  0.04399733  0.14586000     1.03700
Fe45       Fe  0.16977336  0.23520107  0.00995435     1.65800
Fe46       Fe  0.17112803  0.30604597  0.00881541     1.73200
Fe47       Fe  0.23230826  0.26931735  0.00870972     1.54400
O48         O  0.23470234  0.24272936  0.04300050    -0.81000
O49         O  0.19839677  0.32414596  0.98109592    -0.79300
O50         O  0.19651182  0.21646076  0.03794588    -0.83500
O51         O  0.19113866  0.21868507  0.97682866    -0.78300
O52         O  0.23586556  0.30349994  0.03586999    -0.80100
O53         O  0.14764885  0.29438863  0.97460155    -0.82900
C54         C  0.21699590  0.21770007  0.97151802     0.97900
C55         C  0.21977626  0.22165523  0.04949715     1.05300
O56         O  0.19117394  0.27013476  0.00923204    -1.11800
O57         O  0.14101884  0.29367636  0.03704083    -0.74300
O58         O  0.14667075  0.24794733  0.04344106    -0.77800
O59         O  0.23450365  0.23449635  0.98244394    -0.78400
C60         C  0.13621741  0.27124964  0.05028897     0.96800
O61         O  0.14033105  0.24897644  0.98165536    -0.76400
O62         O  0.19309924  0.32057933  0.04260198    -0.81600
C63         C  0.22001682  0.31701573  0.96762165     0.99400
C64         C  0.21876191  0.31932864  0.04875471     1.05400
O65         O  0.23397182  0.29524929  0.97380921    -0.77200
C66         C  0.13642788  0.27129220  0.96784000     1.03700
Fe67       Fe  0.18044647  0.76795682  0.00609420     1.65800
Fe68       Fe  0.17746460  0.69693148  0.00831870     1.73200
Fe69       Fe  0.24128272  0.73031770  0.00931454     1.54400
O70         O  0.24675714  0.75875854  0.97693002    -0.81000
O71         O  0.20121915  0.67896296  0.03921231    -0.79300
O72         O  0.20787366  0.78429594  0.97739516    -0.83500
O73         O  0.20300610  0.78435025  0.03847031    -0.78300
O74         O  0.24352950  0.69785459  0.97998468    -0.80100
O75         O  0.15178037  0.71095867  0.04032003    -0.82900
C76         C  0.22788502  0.78191479  0.04701887     0.97900
C77         C  0.23216162  0.77916444  0.96829797     1.05300
O78         O  0.19988608  0.73173864  0.00789982    -1.11800
O79         O  0.15110195  0.70974955  0.97629356    -0.74300
O80         O  0.15634680  0.75584430  0.97294696    -0.77800
O81         O  0.24442851  0.76309445  0.03805666    -0.78400
C82         C  0.14672380  0.73286227  0.96399218     0.96800
O83         O  0.15048903  0.75715225  0.03521087    -0.76400
O84         O  0.20097304  0.67910432  0.97732076    -0.81600
C85         C  0.22459867  0.68326770  0.05077322     0.99400
C86         C  0.22604268  0.68093412  0.96913448     1.05400
O87         O  0.24125201  0.70226443  0.04245670    -0.77200
C88         C  0.14332859  0.73496632  0.04784919     1.03700
Fe89       Fe  0.00578362  0.17953865  0.77275021     1.65800
Fe90       Fe  0.00230195  0.17656962  0.70213127     1.73200
Fe91       Fe  0.00559121  0.24009857  0.73552852     1.54400
O92         O  0.97249325  0.24442440  0.76282660    -0.81000
O93         O  0.03227032  0.20099283  0.68275252    -0.79300
O94         O  0.98025058  0.20864469  0.79169674    -0.83500
O95         O  0.04082784  0.20066719  0.78511119    -0.78300
O96         O  0.97749375  0.24324776  0.70240824    -0.80100
O97         O  0.03447270  0.15039122  0.71317410    -0.82900
C98         C  0.04543043  0.22679113  0.78550151     0.97900
C99         C  0.96790135  0.23128203  0.78541377     1.05300
O100        O  0.00451219  0.19876854  0.73673373    -1.11800
O101        O  0.97156465  0.14987963  0.71775045    -0.74300
O102        O  0.97051902  0.15754494  0.76364672    -0.77800
O103        O  0.03308042  0.24363015  0.76908817    -0.78400
C104        C  0.96015346  0.14722126  0.74161351     0.96800
O105        O  0.03166630  0.14757495  0.75933735    -0.76400
O106        O  0.97033977  0.20008999  0.68661137    -0.81600
C107        C  0.04576754  0.22321257  0.68855611     0.99400
C108        C  0.96447496  0.22587301  0.68706474     1.05400
O109        O  0.03916496  0.23921418  0.70870437    -0.77200
C110        C  0.04246706  0.14037207  0.73624299     1.03700
Fe111      Fe  0.99913166  0.18858477  0.23717743     1.65800
Fe112      Fe  0.00122757  0.18191832  0.30713557     1.73200
Fe113      Fe  0.00053544  0.24709276  0.27769195     1.54400
O114        O  0.03374502  0.25200045  0.25079612    -0.81000
O115        O  0.97418476  0.20742543  0.32928500    -0.79300
O116        O  0.02499518  0.21814789  0.21987345    -0.83500
O117        O  0.96444891  0.21104812  0.22622515    -0.78300
O118        O  0.02858316  0.24674306  0.31101941    -0.80100
O119        O  0.96660548  0.16003871  0.29469782    -0.82900
C120        C  0.95998272  0.23716438  0.22771525     0.97900
C121        C  0.03794279  0.23997259  0.22756843     1.05300
O122        O  0.00038520  0.20599192  0.27403261    -1.11800
O123        O  0.02940568  0.15344843  0.28968524    -0.74300
O124        O  0.03425559  0.16542011  0.24514157    -0.77800
O125        O  0.97306893  0.25314386  0.24448304    -0.78400
C126        C  0.04248096  0.15221852  0.26653792     0.96800
O127        O  0.97252143  0.15654837  0.24888385    -0.76400
O128        O  0.03510094  0.20207054  0.32263309    -0.81600
C129        C  0.96128122  0.23023354  0.32492816     0.99400
C130        C  0.04137446  0.22771060  0.32449258     1.05400
O131        O  0.96701660  0.24617111  0.30450209    -0.77200
C132        C  0.95921882  0.15083309  0.27107197     1.03700
Fe133      Fe  0.00035333  0.83171029  0.24089650     1.65800
Fe134      Fe  0.99983856  0.83047093  0.31210764     1.73200
Fe135      Fe  0.00199226  0.76860561  0.27506209     1.54400
O136        O  0.97192435  0.76547226  0.24383152    -0.81000
O137        O  0.03030108  0.80607625  0.32946857    -0.79300
O138        O  0.96968029  0.80749003  0.22357268    -0.83500
O139        O  0.03064129  0.80765373  0.22218343    -0.78300
O140        O  0.97018990  0.76502676  0.30475800    -0.80100
O141        O  0.03142185  0.85733608  0.30065673    -0.82900
C142        C  0.04048202  0.78318146  0.22486928     0.97900
C143        C  0.96216871  0.78212716  0.22555168     1.05300
O144        O  0.00075421  0.81014446  0.27598109    -1.11800
O145        O  0.96867578  0.85776646  0.30023816    -0.74300
O146        O  0.96951518  0.85845016  0.25396709    -0.77800
O147        O  0.03302235  0.76682617  0.24450884    -0.78400
C148        C  0.95919107  0.86613467  0.27704835     0.96800
O149        O  0.03138568  0.85803386  0.25411644    -0.76400
O150        O  0.96877361  0.80560568  0.32761614    -0.81600
C151        C  0.04133945  0.78244040  0.32511302     0.99400
C152        C  0.95956299  0.78115978  0.32309928     1.05400
O153        O  0.03306101  0.76627040  0.30563853    -0.77200
C154        C  0.04147405  0.86523900  0.27748043     1.03700
Fe155      Fe  0.82353532  0.77302912  0.00592231     1.65800
Fe156      Fe  0.82777920  0.70202250  0.00811084     1.73200
Fe157      Fe  0.76370532  0.73422621  0.01149647     1.54400
O158        O  0.76144703  0.76346882  0.04325890    -0.81000
O159        O  0.80162297  0.68210381  0.98022854    -0.79300
O160        O  0.79851754  0.79063141  0.03588600    -0.83500
O161        O  0.79776894  0.78631614  0.97462695    -0.78300
O162        O  0.76487425  0.70341059  0.04204996    -0.80100
O163        O  0.85085760  0.71442123  0.97391521    -0.82900
C164        C  0.77203779  0.78321101  0.96954585     0.97900
C165        C  0.77617765  0.78482960  0.04881108     1.05300
O166        O  0.80491063  0.73640996  0.00849784    -1.11800
O167        O  0.85625058  0.71753515  0.03686199    -0.74300
O168        O  0.85091310  0.76378446  0.03744061    -0.77800
O169        O  0.75680317  0.76539278  0.98205513    -0.78400
C170        C  0.86136182  0.74149943  0.04717150     0.96800
O171        O  0.85090866  0.76081258  0.97521651    -0.76400
O172        O  0.80749269  0.68522571  0.04167838    -0.81600
C173        C  0.77721228  0.68583176  0.97064118     0.99400
C174        C  0.78324998  0.68704731  0.05193268     1.05400
O175        O  0.76113613  0.70494443  0.97966252    -0.77200
C176        C  0.85813661  0.73790996  0.96405948     1.03700
Fe177      Fe  0.23057363  0.99570892  0.83105732     1.65800
Fe178      Fe  0.30104359  0.00138848  0.83463552     1.73200
Fe179      Fe  0.26841394  0.00067933  0.77057353     1.54400
O180        O  0.23823055  0.96972178  0.76537301    -0.81000
O181        O  0.31667993  0.03455167  0.81254080    -0.79300
O182        O  0.21917544  0.96221934  0.80720780    -0.83500
O183        O  0.21101302  0.02278306  0.80418858    -0.78300
O184        O  0.29862293  0.96984996  0.76930496    -0.80100
O185        O  0.28431266  0.03075213  0.86220094    -0.82900
C186        C  0.21566501  0.03490716  0.78109705     0.97900
C187        C  0.22158085  0.95666280  0.78146351     1.05300
O188        O  0.26670708  0.99942579  0.81197574    -1.11800
O189        O  0.29043704  0.96739249  0.85909828    -0.74300
O190        O  0.24425512  0.96726496  0.86030001    -0.77800
O191        O  0.23773844  0.03096639  0.76695432    -0.78400
C192        C  0.26754858  0.95704206  0.86730231     0.96800
O193        O  0.23824038  0.02919868  0.85663669    -0.76400
O194        O  0.32165549  0.97303373  0.80957362    -0.81600
C195        C  0.31500353  0.04324068  0.78761710     0.99400
C196        C  0.31800717  0.96214378  0.78564217     1.05400
O197        O  0.29850677  0.03231674  0.76986330    -0.77200
C198        C  0.25993350  0.04003831  0.86716726     1.03700
Fe199      Fe  0.00365879  0.82034503  0.77667346     1.65800
Fe200      Fe  0.00313051  0.82401666  0.70572049     1.73200
Fe201      Fe  0.00323064  0.75969332  0.73825234     1.54400
O202        O  0.03259310  0.75480475  0.76998000    -0.81000
O203        O  0.97126027  0.80150635  0.68827791    -0.79300
O204        O  0.03538507  0.79594469  0.79170600    -0.83500
O205        O  0.97411544  0.79414234  0.79324544    -0.78300
O206        O  0.03596064  0.75931472  0.70999541    -0.80100
O207        O  0.97270299  0.85115827  0.71994025    -0.82900
C208        C  0.96377304  0.77032697  0.78788683     0.97900
C209        C  0.04316671  0.77083861  0.78835138     1.05300
O210        O  0.00320553  0.80124104  0.74023598    -1.11800
O211        O  0.03551611  0.84910048  0.71878247    -0.74300
O212        O  0.03379159  0.84865690  0.76510972    -0.77800
O213        O  0.97124297  0.75540987  0.76720452    -0.78400
C214        C  0.04486313  0.85644931  0.74239450     0.96800
O215        O  0.97170496  0.84679222  0.76613083    -0.76400
O216        O  0.03321909  0.79971921  0.68706878    -0.81600
C217        C  0.96295260  0.77639588  0.68959294     0.99400
C218        C  0.04469971  0.77624475  0.69146955     1.05400
O219        O  0.97354699  0.75853876  0.70623373    -0.77200
C220        C  0.96211681  0.85670379  0.74357803     1.03700
Fe221      Fe  0.83710172  0.23821576  0.00302664     1.65800
Fe222      Fe  0.83459071  0.30936026  0.00489776     1.73200
Fe223      Fe  0.77372251  0.27092213  0.00543637     1.54400
O224        O  0.77141195  0.23947254  0.97516433    -0.81000
O225        O  0.81124606  0.32395271  0.03760898    -0.79300
O226        O  0.81431060  0.22202149  0.97036761    -0.83500
O227        O  0.81260002  0.21777591  0.03159239    -0.78300
O228        O  0.76962854  0.30051138  0.97394788    -0.80100
O229        O  0.86310917  0.29700306  0.03473386    -0.82900
C230        C  0.78893489  0.22097609  0.04284772     0.97900
C231        C  0.78867757  0.22271496  0.96376835     1.05300
O232        O  0.81500764  0.27282926  0.00436195    -1.11800
O233        O  0.86024640  0.29947276  0.97159381    -0.74300
O234        O  0.86486900  0.25333659  0.97398788    -0.77800
O235        O  0.77263009  0.24090302  0.03658619    -0.78400
C236        C  0.87041869  0.27668384  0.96274840     0.96800
O237        O  0.86126071  0.25051570  0.03611414    -0.76400
O238        O  0.80811093  0.32651685  0.97618070    -0.81600
C239        C  0.78703560  0.31947956  0.04720941     0.99400
C240        C  0.78447028  0.32099702  0.96573628     1.05400
O241        O  0.77071327  0.30129853  0.03665225    -0.77200
C242        C  0.86919291  0.27380065  0.04600908     1.03700
Fe243      Fe  0.77396577  0.99520932  0.83042028     1.65800
Fe244      Fe  0.70412779  0.00246615  0.83419221     1.73200
Fe245      Fe  0.73655955  0.00012007  0.77066438     1.54400
O246        O  0.76464109  0.03331817  0.76852746    -0.81000
O247        O  0.68313278  0.97397819  0.80904989    -0.79300
O248        O  0.79428511  0.01899084  0.80127053    -0.83500
O249        O  0.78249869  0.95931630  0.80868382    -0.78300
O250        O  0.70398684  0.02904229  0.76867760    -0.80100
O251        O  0.71393389  0.96855333  0.85863751    -0.82900
C252        C  0.78416464  0.95711570  0.78237263     0.97900
C253        C  0.78788603  0.03503685  0.78123660     1.05300
O254        O  0.73804876  0.99937843  0.81173265    -1.11800
O255        O  0.72200187  0.03223015  0.86088187    -0.74300
O256        O  0.76785219  0.03136935  0.85285530    -0.77800
O257        O  0.76967153  0.97213979  0.76594774    -0.78400
C258        C  0.74634271  0.04280615  0.86329125     0.96800
O259        O  0.75985552  0.97022649  0.86240012    -0.76400
O260        O  0.68972881  0.03580466  0.81221619    -0.81600
C261        C  0.68821711  0.96052968  0.78660883     0.99400
C262        C  0.68940309  0.04211195  0.78662543     1.05400
O263        O  0.70865887  0.96666699  0.77060603    -0.77200
C264        C  0.73659128  0.95927493  0.86831459     1.03700
Fe265      Fe  0.50150130  0.26560524  0.33481447     1.65800
Fe266      Fe  0.50493255  0.19494164  0.33515438     1.73200
Fe267      Fe  0.50092911  0.23051450  0.27304411     1.54400
O268        O  0.46642315  0.25625287  0.27140904    -0.81000
O269        O  0.53299004  0.17780551  0.30750912    -0.79300
O270        O  0.47333559  0.28398182  0.30817111    -0.83500
O271        O  0.53414515  0.28203250  0.31260762    -0.78300
O272        O  0.47378875  0.19611010  0.27154626    -0.80100
O273        O  0.53894178  0.20806243  0.35732122    -0.82900
C274        C  0.53835482  0.28280571  0.28644581     0.97900
C275        C  0.46087930  0.27793989  0.28563613     1.05300
O276        O  0.50254029  0.23034876  0.31416489    -1.11800
O277        O  0.47648092  0.20703906  0.36576868    -0.74300
O278        O  0.46789471  0.25197588  0.35702865    -0.77800
O279        O  0.52676894  0.26574209  0.26951471    -0.78400
C280        C  0.46128635  0.22868673  0.36771539     0.96800
O281        O  0.53015796  0.25302592  0.36463103    -0.76400
O282        O  0.47177653  0.17834001  0.31446377    -0.81600
C283        C  0.54441496  0.18487125  0.28466963     0.99400
C284        C  0.46316549  0.17952135  0.28955001     1.05400
O285        O  0.53579845  0.20529071  0.27007005    -0.77200
C286        C  0.54502700  0.23137211  0.36820120     1.03700
Fe287      Fe  0.32956824  0.50181237  0.27800666     1.65800
Fe288      Fe  0.33173115  0.49802840  0.20706406     1.73200
Fe289      Fe  0.26862452  0.49979197  0.24093844     1.54400
O290        O  0.26548689  0.46735800  0.26944267    -0.81000
O291        O  0.30675931  0.52729292  0.18766492    -0.79300
O292        O  0.30319049  0.47311133  0.29620021    -0.83500
O293        O  0.30605499  0.53479106  0.29197521    -0.78300
O294        O  0.26619118  0.47047154  0.20916477    -0.80100
O295        O  0.35718983  0.53134912  0.21825593    -0.82900
C296        C  0.28038646  0.54064384  0.29002729     0.97900
C297        C  0.28028044  0.46106473  0.29051914     1.05300
O298        O  0.30992674  0.49984295  0.24200300    -1.11800
O299        O  0.35888971  0.46790263  0.22217146    -0.74300
O300        O  0.35488756  0.46866743  0.26842380    -0.77800
O301        O  0.26423953  0.52863242  0.27283398    -0.78400
C302        C  0.36417505  0.45787205  0.24613918     0.96800
O303        O  0.35831392  0.53101943  0.26461936    -0.76400
O304        O  0.30874362  0.46503654  0.19150345    -0.81600
C305        C  0.28385414  0.53966337  0.19267137     0.99400
C306        C  0.28324852  0.45817962  0.19304373     1.05400
O307        O  0.26792451  0.53256556  0.21272340    -0.77200
C308        C  0.36553601  0.54137605  0.24133802     1.03700
Fe309      Fe  0.27351978  0.31987196  0.50631598     1.65800
Fe310      Fe  0.20336249  0.32178733  0.50477261     1.73200
Fe311      Fe  0.23701401  0.25895366  0.50536898     1.54400
O312        O  0.26317750  0.25598145  0.47106140    -0.81000
O313        O  0.18350107  0.29484898  0.53186711    -0.79300
O314        O  0.29219556  0.29139754  0.48008939    -0.83500
O315        O  0.28629991  0.29812407  0.54069607    -0.78300
O316        O  0.20261261  0.25675654  0.47884198    -0.80100
O317        O  0.21473101  0.34418205  0.53984728    -0.82900
C318        C  0.28712659  0.27192275  0.54453666     0.97900
C319        C  0.28583768  0.26922438  0.46690758     1.05300
O320        O  0.23795736  0.30013349  0.50523006    -1.11800
O321        O  0.21834381  0.35139003  0.47670588    -0.74300
O322        O  0.26374249  0.34290144  0.47174225    -0.77800
O323        O  0.27143498  0.25498954  0.53140147    -0.78400
C324        C  0.24136826  0.35451039  0.46393344     0.96800
O325        O  0.26006267  0.35078744  0.53328513    -0.76400
O326        O  0.18917640  0.30064819  0.47057976    -0.81600
C327        C  0.19043343  0.27353129  0.54608001     0.99400
C328        C  0.18831422  0.27468270  0.46544267     1.05400
O329        O  0.21169451  0.25881756  0.54023398    -0.77200
C330        C  0.23789283  0.35457653  0.54724482     1.03700
Fe331      Fe  0.27282254  0.67693220  0.50799451     1.65800
Fe332      Fe  0.20191526  0.67430562  0.50758140     1.73200
Fe333      Fe  0.23552678  0.73817654  0.50692875     1.54400
O334        O  0.26587158  0.74262811  0.53751657    -0.81000
O335        O  0.18329942  0.69854131  0.47771596    -0.79300
O336        O  0.28894083  0.70221190  0.53851644    -0.83500
O337        O  0.28941484  0.70160433  0.47741002    -0.78300
O338        O  0.20568223  0.73945662  0.53873871    -0.80100
O339        O  0.21495468  0.64874955  0.47538033    -0.82900
C340        C  0.28564393  0.72587825  0.46755590     0.97900
C341        C  0.28495947  0.72695748  0.54712815     1.05300
O342        O  0.23676259  0.69660068  0.50745510    -1.11800
O343        O  0.21516172  0.64714874  0.53834703    -0.74300
O344        O  0.26132909  0.65002811  0.53911403    -0.77800
O345        O  0.26602085  0.74183905  0.47582163    -0.78400
C346        C  0.23856325  0.64081770  0.54875464     0.96800
O347        O  0.26127781  0.64953084  0.47712590    -0.76400
O348        O  0.18500487  0.69762218  0.53910316    -0.81600
C349        C  0.18621703  0.72276548  0.46744967     0.99400
C350        C  0.18817506  0.72208758  0.54882920     1.05400
O351        O  0.20505684  0.73956819  0.47584257    -0.77200
C352        C  0.23864127  0.64154656  0.46607488     1.03700
Fe353      Fe  0.32790595  0.49902275  0.73826961     1.65800
Fe354      Fe  0.32817085  0.49971799  0.80933915     1.73200
Fe355      Fe  0.26565371  0.49774320  0.77367637     1.54400
O356        O  0.26204248  0.52870477  0.74365099    -0.81000
O357        O  0.30346000  0.46921742  0.82732238    -0.79300
O358        O  0.30256861  0.52860301  0.72074892    -0.83500
O359        O  0.30461893  0.46723007  0.72148302    -0.78300
O360        O  0.26236761  0.52864149  0.80433325    -0.80100
O361        O  0.35484055  0.46759248  0.79753370    -0.82900
C362        C  0.28001612  0.45794930  0.72420743     0.97900
C363        C  0.27796086  0.53749723  0.72433831     1.05300
O364        O  0.30713201  0.49881625  0.77376959    -1.11800
O365        O  0.35541910  0.53111477  0.79642215    -0.74300
O366        O  0.35358073  0.53114411  0.75011204    -0.77800
O367        O  0.26325951  0.46709829  0.74269728    -0.78400
C368        C  0.36219673  0.54135257  0.77290954     0.96800
O369        O  0.35569305  0.46919420  0.75114196    -0.76400
O370        O  0.30388893  0.53138343  0.82515764    -0.81600
C371        C  0.27979928  0.45812972  0.82283106     0.99400
C372        C  0.27901796  0.53969409  0.82186384     1.05400
O373        O  0.26390699  0.46624499  0.80326505    -0.77200
C374        C  0.36328774  0.45849471  0.77409061     1.03700
Fe375      Fe  0.50050903  0.73439775  0.32481881     1.65800
Fe376      Fe  0.50346647  0.80522341  0.32971844     1.73200
Fe377      Fe  0.50345809  0.77317643  0.26514098     1.54400
O378        O  0.53609935  0.74505755  0.26141205    -0.81000
O379        O  0.47459197  0.82487241  0.30492028    -0.79300
O380        O  0.52868255  0.71669458  0.29769830    -0.83500
O381        O  0.46765635  0.72140785  0.30102609    -0.78300
O382        O  0.53268052  0.80563281  0.26461670    -0.80100
O383        O  0.47005979  0.79284572  0.35418337    -0.82900
C384        C  0.46304669  0.72269504  0.27503926     0.97900
C385        C  0.54119903  0.72294330  0.27520242     1.05300
O386        O  0.50255822  0.77099689  0.30646264    -1.11800
O387        O  0.53341432  0.78952392  0.35702773    -0.74300
O388        O  0.53348634  0.74360071  0.34987210    -0.77800
O389        O  0.47530753  0.74018715  0.25915419    -0.78400
C390        C  0.54386535  0.76536464  0.36074062     0.96800
O391        O  0.47172255  0.74644593  0.35446638    -0.76400
O392        O  0.53590359  0.82252170  0.30781941    -0.81600
C393        C  0.46278777  0.82051354  0.28160659     0.99400
C394        C  0.54365866  0.82192481  0.28255362     1.05400
O395        O  0.47035001  0.80111998  0.26498280    -0.77200
C396        C  0.46076044  0.76931273  0.36205692     1.03700
Fe397      Fe  0.67426591  0.50133161  0.27452448     1.65800
Fe398      Fe  0.67380121  0.50067090  0.20343792     1.73200
Fe399      Fe  0.73635369  0.50022049  0.23900762     1.54400
O400        O  0.74038587  0.53109127  0.26934306    -0.81000
O401        O  0.69732564  0.46865185  0.18683779    -0.79300
O402        O  0.69981224  0.53065103  0.29190742    -0.83500
O403        O  0.69753052  0.46950391  0.29110063    -0.78300
O404        O  0.73928869  0.53112107  0.20891289    -0.80100
O405        O  0.64585928  0.47002795  0.21631731    -0.82900
C406        C  0.72218997  0.46049785  0.28804880     0.97900
C407        C  0.72444776  0.53958176  0.28877083     1.05300
O408        O  0.69490870  0.50073145  0.23897412    -1.11800
O409        O  0.64808565  0.53345859  0.21574289    -0.74300
O410        O  0.64905255  0.53359927  0.26217566    -0.77800
O411        O  0.73881298  0.46968578  0.26952444    -0.78400
C412        C  0.64117446  0.54392703  0.23915235     0.96800
O413        O  0.64592890  0.47168099  0.26261836    -0.76400
O414        O  0.69915932  0.53053476  0.18569033    -0.81600
C415        C  0.72161332  0.45890482  0.19081493     0.99400
C416        C  0.72343213  0.54025404  0.18976447     1.05400
O417        O  0.73801153  0.46881207  0.20917278    -0.77200
C418        C  0.63760235  0.46116723  0.23989153     1.03700
Fe419      Fe  0.73344664  0.67346038  0.51014297     1.65800
Fe420      Fe  0.80425248  0.67312311  0.50693195     1.73200
Fe421      Fe  0.76896673  0.73592585  0.50564513     1.54400
O422        O  0.73644735  0.73815307  0.47694969    -0.81000
O423        O  0.82186620  0.69787648  0.53703658    -0.79300
O424        O  0.71436914  0.69722980  0.48047760    -0.83500
O425        O  0.71803648  0.69907451  0.54074955    -0.78300
O426        O  0.79698863  0.73691750  0.47246232    -0.80100
O427        O  0.79323925  0.64654712  0.53914022    -0.82900
C428        C  0.72133792  0.72434429  0.54815097     0.97900
C429        C  0.71636483  0.72185603  0.47092233     1.05300
O430        O  0.76884382  0.69431786  0.50758344    -1.11800
O431        O  0.79053174  0.64622719  0.47606236    -0.74300
O432        O  0.74422042  0.64567228  0.47907811    -0.77800
O433        O  0.74009365  0.74020949  0.53789553    -0.78400
C434        C  0.76680967  0.63819376  0.46751721     0.96800
O435        O  0.74706060  0.64745735  0.54113039    -0.76400
O436        O  0.82068736  0.69707136  0.47550579    -0.81600
C437        C  0.81919282  0.72297579  0.54512560     0.99400
C438        C  0.81616361  0.72054751  0.46415106     1.05400
O439        O  0.80125685  0.73965272  0.53478357    -0.77200
C440        C  0.77039177  0.63943720  0.55033473     1.03700
Fe441      Fe  0.67932601  0.50462562  0.73711381     1.65800
Fe442      Fe  0.67275088  0.50283852  0.80789387     1.73200
Fe443      Fe  0.73806503  0.50369880  0.77768572     1.54400
O444        O  0.74355226  0.47206955  0.74829783    -0.81000
O445        O  0.69486708  0.53468510  0.82688069    -0.79300
O446        O  0.70558046  0.47504797  0.72166660    -0.83500
O447        O  0.70451877  0.53644279  0.72323362    -0.78300
O448        O  0.73818315  0.47315253  0.80815312    -0.80100
O449        O  0.64613752  0.53362060  0.79361861    -0.82900
C450        C  0.72940869  0.54405585  0.72786214     0.97900
C451        C  0.72885529  0.46423085  0.72764875     1.05300
O452        O  0.69681504  0.50376202  0.77426152    -1.11800
O453        O  0.64866158  0.47012093  0.79249537    -0.74300
O454        O  0.65251840  0.47230277  0.74625425    -0.77800
O455        O  0.74421014  0.53373376  0.74719991    -0.78400
C456        C  0.64361133  0.46055016  0.76824263     0.96800
O457        O  0.65102131  0.53464514  0.74758616    -0.76400
O458        O  0.69601477  0.47264752  0.82729366    -0.81600
C459        C  0.71918690  0.54503897  0.82445379     0.99400
C460        C  0.72064158  0.46340678  0.82544940     1.05400
O461        O  0.73705363  0.53555917  0.80718586    -0.77200
C462        C  0.64072731  0.54410358  0.76996109     1.03700
Fe463      Fe  0.50005793  0.73436926  0.68095399     1.65800
Fe464      Fe  0.50350555  0.80554637  0.67958655     1.73200
Fe465      Fe  0.50118082  0.77112783  0.74255037     1.54400
O466        O  0.47107352  0.73976640  0.74654361    -0.81000
O467        O  0.53643168  0.82041034  0.70241257    -0.79300
O468        O  0.46828046  0.71878106  0.70508858    -0.83500
O469        O  0.52935046  0.71643146  0.70640151    -0.78300
O470        O  0.46955467  0.80071836  0.74365228    -0.80100
O471        O  0.53312821  0.79090151  0.65174630    -0.82900
C472        C  0.53935958  0.72093620  0.73048432     0.97900
C473        C  0.46097716  0.72117634  0.73040798     1.05300
O474        O  0.50159041  0.77028471  0.70114001    -1.11800
O475        O  0.46995471  0.79462482  0.65488269    -0.74300
O476        O  0.47011374  0.74801753  0.65350688    -0.77800
O477        O  0.53197115  0.74119643  0.74596649    -0.78400
C478        C  0.45970559  0.77148125  0.64697093     0.96800
O479        O  0.53218988  0.74454851  0.65459470    -0.76400
O480        O  0.47504257  0.82537940  0.70464920    -0.81600
C481        C  0.54450135  0.81801214  0.72746250     0.99400
C482        C  0.46289851  0.82091077  0.72771483     1.05400
O483        O  0.53235124  0.80178089  0.74475546    -0.77200
C484        C  0.54278121  0.76702242  0.64552236     1.03700
Fe485      Fe  0.50432434  0.26571667  0.68015458     1.65800
Fe486      Fe  0.50368189  0.19442852  0.68120214     1.73200
Fe487      Fe  0.50359198  0.23146704  0.74309105     1.54400
O488        O  0.53453248  0.26204616  0.74557793    -0.81000
O489        O  0.47198418  0.17861361  0.70524887    -0.79300
O490        O  0.53542159  0.28295215  0.70391329    -0.83500
O491        O  0.47435068  0.28429054  0.70442354    -0.78300
O492        O  0.53448994  0.20111066  0.74639357    -0.80100
O493        O  0.47310444  0.20658097  0.65337825    -0.82900
C494        C  0.46524115  0.28167370  0.72912389     0.97900
C495        C  0.54398222  0.28043341  0.72880145     1.05300
O496        O  0.50387553  0.23054774  0.70161817    -1.11800
O497        O  0.53631521  0.20582715  0.65505079    -0.74300
O498        O  0.53484502  0.25225928  0.65336271    -0.77800
O499        O  0.47337401  0.26243957  0.74551268    -0.78400
C500        C  0.54581502  0.22913947  0.64661012     0.96800
O501        O  0.47292378  0.25306627  0.65415180    -0.76400
O502        O  0.53311006  0.17703214  0.70658818    -0.81600
C503        C  0.46207998  0.18288510  0.72944149     0.99400
C504        C  0.54291761  0.18136453  0.73071862     1.05400
O505        O  0.47187870  0.20152734  0.74576442    -0.77200
C506        C  0.46296929  0.22990788  0.64604709     1.03700
Fe507      Fe  0.73013174  0.32543015  0.50755698     1.65800
Fe508      Fe  0.80001471  0.33303195  0.50920239     1.73200
Fe509      Fe  0.77111916  0.26774729  0.50707535     1.54400
O510        O  0.74492647  0.26179923  0.54098897    -0.81000
O511        O  0.82208673  0.30845922  0.48131093    -0.79300
O512        O  0.71314400  0.29478212  0.53253309    -0.83500
O513        O  0.71936457  0.30410342  0.47211130    -0.78300
O514        O  0.80531739  0.26777349  0.53402588    -0.80100
O515        O  0.78681305  0.35489128  0.47491537    -0.82900
C516        C  0.72080491  0.27805691  0.46723134     0.97900
C517        C  0.72132708  0.27306269  0.54532666     1.05300
O518        O  0.76714130  0.30862390  0.50813881    -1.11800
O519        O  0.78234303  0.36102867  0.53760153    -0.74300
O520        O  0.73843668  0.34687911  0.54350354    -0.77800
O521        O  0.73748662  0.26198186  0.48018900    -0.78400
C522        C  0.75972913  0.36034500  0.55147793     0.96800
O523        O  0.74129262  0.35855997  0.48191578    -0.76400
O524        O  0.81632518  0.31227917  0.54287537    -0.81600
C525        C  0.81704916  0.28651340  0.46717203     0.99400
C526        C  0.81889365  0.28629264  0.54753243     1.05400
O527        O  0.79683876  0.27022930  0.47273109    -0.77200
C528        C  0.76307015  0.36380161  0.46775861     1.03700
C529        C  0.66529065  0.22630702  0.57431990    -0.27500
C530        C  0.65240541  0.24472187  0.59323078     0.06100
C531        C  0.66563935  0.27019176  0.59979027     0.25700
C532        C  0.68982234  0.27820821  0.58570124    -0.12000
C533        C  0.70154636  0.26078094  0.56529301    -0.25900
C534        C  0.68976305  0.23429029  0.56034454     0.36500
C535        C  0.62413146  0.23871485  0.60424634     0.06100
F536        F  0.65442203  0.28792973  0.61889810    -0.19700
H537        H  0.69859315  0.29875160  0.58962003     0.15900
F538        F  0.70031185  0.21738959  0.54014257    -0.23400
H539        H  0.65544677  0.20658553  0.56906697     0.17700
C540        C  0.60272534  0.25848371  0.60083740     0.25700
C541        C  0.57680627  0.25429294  0.61333814    -0.12000
C542        C  0.57147256  0.23023290  0.62935240    -0.26000
C543        C  0.59231006  0.20952186  0.63127891     0.36600
C544        C  0.61843396  0.21379374  0.61872541    -0.27600
F545        F  0.60702008  0.28215147  0.58572300    -0.19700
H546        H  0.56107940  0.27039925  0.61114294     0.15900
F547        F  0.58815387  0.18606215  0.64672103    -0.23500
H548        H  0.63460041  0.19819907  0.62130925     0.17800
C549        C  0.60439029  0.39955156  0.73592941    -0.27500
C550        C  0.60524797  0.37956182  0.75743104     0.06100
C551        C  0.61752411  0.38700768  0.78308122     0.25700
C552        C  0.62864370  0.41388386  0.78695989    -0.12000
C553        C  0.62824535  0.43369712  0.76522814    -0.25900
C554        C  0.61582956  0.42620784  0.73962370     0.36500
C555        C  0.59310728  0.35127014  0.75256557     0.06100
F556        F  0.61995015  0.36796245  0.80395515    -0.19700
H557        H  0.63866964  0.41878098  0.80663809     0.15900
F558        F  0.61484523  0.44455207  0.71799704    -0.23400
H559        H  0.59478425  0.39449534  0.71608114     0.17700
C560        C  0.57398989  0.33933100  0.77151038     0.25700
C561        C  0.55995449  0.31450607  0.76473872    -0.12000
C562        C  0.56419011  0.30155177  0.73875990    -0.26000
C563        C  0.58431472  0.31265679  0.72044149     0.36600
C564        C  0.59874886  0.33711333  0.72743118    -0.27600
F565        F  0.56702624  0.35283870  0.79545334    -0.19700
H566        H  0.54409260  0.30667972  0.77887257     0.15900
F567        F  0.58912322  0.30053015  0.69523084    -0.23500
H568        H  0.61360697  0.34565442  0.71263971     0.17800
C569        C  0.59470988  0.66580551  0.73186672    -0.27500
C570        C  0.58649634  0.65038169  0.75549455     0.06100
C571        C  0.56573319  0.66124542  0.77320248     0.25700
C572        C  0.55222224  0.68615651  0.76625103    -0.12000
C573        C  0.55884584  0.70012127  0.74136315    -0.25900
C574        C  0.58068610  0.69025706  0.72455362     0.36500
C575        C  0.59818172  0.62214376  0.76017991     0.06100
F576        F  0.55687705  0.64666643  0.79587134    -0.19700
H577        H  0.53500327  0.69327024  0.77909101     0.15900
F578        F  0.58749509  0.70354916  0.70041717    -0.23400
H579        H  0.61116294  0.65818985  0.71834372     0.17700
C580        C  0.59956711  0.60286835  0.73802091     0.25700
C581        C  0.61199243  0.57686295  0.74191412    -0.12000
C582        C  0.62315876  0.56937687  0.76796422    -0.26000
C583        C  0.62039775  0.58803568  0.79059070     0.36600
C584        C  0.60811965  0.61426345  0.78660188    -0.27600
F585        F  0.58904607  0.60920798  0.71247810    -0.19700
H586        H  0.61353304  0.56281355  0.72421187     0.15900
F587        F  0.63096875  0.58171906  0.81610303    -0.23500
H588        H  0.60725807  0.62880084  0.80394622     0.17800
C589        C  0.72534091  0.40807954  0.67357476    -0.27500
C590        C  0.75141444  0.41082170  0.66051055     0.06100
C591        C  0.77188343  0.42794247  0.67296934     0.25700
C592        C  0.76548758  0.44356724  0.69692833    -0.12000
C593        C  0.73865982  0.44225910  0.70856364    -0.25900
C594        C  0.71906560  0.42342186  0.69744821     0.36500
C595        C  0.75587476  0.39739759  0.63293446     0.06100
F596        F  0.79763998  0.43031121  0.66142962    -0.19700
H597        H  0.78077844  0.45811251  0.70514732     0.15900
F598        F  0.69311540  0.42126080  0.70867533    -0.23400
H599        H  0.70911913  0.39524221  0.66438821     0.17700
C600        C  0.74730726  0.36960692  0.62835943     0.25700
C601        C  0.74834721  0.35814373  0.60162724    -0.12000
C602        C  0.75849300  0.37383236  0.57903560    -0.26000
C603        C  0.76777903  0.40133209  0.58350365     0.36600
C604        C  0.76620823  0.41310505  0.61027222    -0.27600
F605        F  0.73798903  0.35346373  0.64976730    -0.19700
H606        H  0.74156039  0.33669861  0.59859823     0.15900
F607        F  0.77720022  0.41709162  0.56187492    -0.23500
H608        H  0.77227555  0.43476709  0.61312561     0.17800
C609        C  0.74463976  0.59519999  0.60995538    -0.27500
C610        C  0.76464603  0.60102820  0.63051601     0.06100
C611        C  0.78883596  0.61593685  0.62320681     0.25700
C612        C  0.79178069  0.62661837  0.59611137    -0.12000
C613        C  0.77054871  0.62272326  0.57622113    -0.25900
C614        C  0.74741665  0.60600207  0.58311230     0.36500
C615        C  0.75907383  0.59195323  0.65946371     0.06100
F616        F  0.80865010  0.62165329  0.64261592    -0.19700
H617        H  0.80979720  0.63935054  0.59121985     0.15900
F618        F  0.72699054  0.60086406  0.56417034    -0.23400
H619        H  0.72629399  0.58293443  0.61500970     0.17700
C620        C  0.73340717  0.59861871  0.67200452     0.25700
C621        C  0.72481528  0.58467845  0.69606921    -0.12000
C622        C  0.74186659  0.56425639  0.70826206    -0.26000
C623        C  0.76888452  0.55989327  0.69755054     0.36600
C624        C  0.77734915  0.57362682  0.67313590    -0.27600
F625        F  0.71587623  0.61730194  0.65988659    -0.19700
H626        H  0.70408185  0.58858855  0.70421416     0.15900
F627        F  0.78586363  0.54020186  0.70882063    -0.23500
H628        H  0.79724219  0.56833671  0.66378582     0.17800
C629        C  0.66367286  0.76968292  0.57660385    -0.27500
C630        C  0.65034175  0.75077915  0.59468857     0.06100
C631        C  0.66333620  0.72515749  0.60081458     0.25700
C632        C  0.68812798  0.71775591  0.58745090    -0.12000
C633        C  0.70049179  0.73575305  0.56780734    -0.25900
C634        C  0.68858099  0.76227782  0.56319623     0.36500
C635        C  0.62197355  0.75668219  0.60541718     0.06100
F636        F  0.65145380  0.70680686  0.61893258    -0.19700
H637        H  0.69689432  0.69722916  0.59131578     0.15900
F638        F  0.69940081  0.77987211  0.54372924    -0.23400
H639        H  0.65390719  0.78946984  0.57155072     0.17700
C640        C  0.61611722  0.78125509  0.62043447     0.25700
C641        C  0.58957211  0.78542858  0.63190512    -0.12000
C642        C  0.56858435  0.76507714  0.62873516    -0.26000
C643        C  0.57414264  0.74113425  0.61256033     0.36600
C644        C  0.60055977  0.73709968  0.60096923    -0.27600
F645        F  0.63646747  0.80039179  0.62537751    -0.19700
H646        H  0.58591651  0.80383892  0.64460622     0.15900
F647        F  0.55420873  0.72135331  0.60841445    -0.23500
H648        H  0.60449881  0.71833714  0.58888172     0.17800
C649        C  0.77707041  0.38953353  0.39413114    -0.27500
C650        C  0.75132636  0.40151281  0.38713539     0.06100
C651        C  0.73034094  0.40312089  0.40768677     0.25700
C652        C  0.73476557  0.39199616  0.43425944    -0.12000
C653        C  0.76026309  0.37931153  0.44110204    -0.25900
C654        C  0.78165952  0.37871323  0.42083396     0.36500
C655        C  0.74632522  0.41249275  0.35860121     0.06100
F656        F  0.70551183  0.41555781  0.40216657    -0.19700
H657        H  0.71794291  0.39287322  0.44934894     0.15900
F658        F  0.80662247  0.36652138  0.42623046    -0.23400
H659        H  0.79346822  0.38782865  0.37865387     0.17700
C660        C  0.76575687  0.43030256  0.34546136     0.25700
C661        C  0.75879145  0.44382055  0.32054716    -0.12000
C662        C  0.73228182  0.44015589  0.30871295    -0.26000
C663        C  0.71382737  0.42060674  0.32053086     0.36600
C664        C  0.72099037  0.40666272  0.34506615    -0.27600
F665        F  0.79046511  0.43653198  0.35780221    -0.19700
H666        H  0.77321135  0.45898373  0.31185455     0.15900
F667        F  0.68829913  0.41608895  0.30912928    -0.23500
H668        H  0.70613915  0.39220845  0.35420587     0.17800
C669        C  0.76945930  0.57025206  0.34567023    -0.27500
C670        C  0.74916131  0.58426635  0.36160222     0.06100
C671        C  0.72229170  0.58773250  0.35045618     0.25700
C672        C  0.71523442  0.57523154  0.32515917    -0.12000
C673        C  0.73475663  0.55909643  0.31034917    -0.25900
C674        C  0.76238304  0.55775017  0.32014568     0.36500
C675        C  0.75576627  0.59500757  0.38987943     0.06100
F676        F  0.70258627  0.60264558  0.36435635    -0.19700
H677        H  0.69393122  0.57697499  0.31782193     0.15900
F678        F  0.78189463  0.54249320  0.30636251    -0.23400
H679        H  0.79043739  0.56778417  0.35366853     0.17700
C680        C  0.73792013  0.58947699  0.41261411     0.25700
C681        C  0.74235875  0.60257599  0.43831363    -0.12000
C682        C  0.76503749  0.62080438  0.44205200    -0.26000
C683        C  0.78402520  0.62469931  0.41991511     0.36600
C684        C  0.77931755  0.61193155  0.39405714    -0.27600
F685        F  0.71595365  0.57171513  0.40986848    -0.19700
H686        H  0.72768492  0.59895529  0.45516002     0.15900
F687        F  0.80598757  0.64245421  0.42255844    -0.23500
H688        H  0.79339677  0.61632299  0.37688877     0.17800
C689        C  0.60667667  0.73183450  0.39472528    -0.27500
C690        C  0.62035778  0.75479894  0.40664454     0.06100
C691        C  0.60904206  0.78170776  0.40329421     0.25700
C692        C  0.58390374  0.78523923  0.38867921    -0.12000
C693        C  0.56975988  0.76195691  0.37737587    -0.25900
C694        C  0.58164641  0.73513237  0.38062413     0.36500
C695        C  0.64498168  0.74930148  0.42433315     0.06100
F696        F  0.62175527  0.80431076  0.41484281    -0.19700
H697        H  0.57549876  0.80612919  0.38629469     0.15900
F698        F  0.56919983  0.71175867  0.37033968    -0.23400
H699        H  0.61522423  0.71094997  0.39687636     0.17700
C700        C  0.64270728  0.72926312  0.44561114     0.25700
C701        C  0.66617689  0.72061047  0.46007913    -0.12000
C702        C  0.69256064  0.73199299  0.45417954    -0.26000
C703        C  0.69482826  0.75316030  0.43384130     0.36600
C704        C  0.67108979  0.76160740  0.41881945    -0.27600
F705        F  0.61763392  0.71776901  0.45225084    -0.19700
H706        H  0.66354624  0.70499655  0.47628356     0.15900
F707        F  0.71992042  0.76489701  0.42787717    -0.23500
H708        H  0.67320383  0.77703870  0.40238918     0.17800
C709        C  0.59790348  0.60390120  0.26706890    -0.27500
C710        C  0.59981267  0.62353941  0.24532387     0.06100
C711        C  0.61301800  0.61564121  0.22024890     0.25700
C712        C  0.62504178  0.58900515  0.21765751    -0.12000
C713        C  0.62443018  0.56999120  0.24009207    -0.25900
C714        C  0.61014257  0.57757555  0.26466583     0.36500
C715        C  0.58881195  0.65225601  0.25003746     0.06100
F716        F  0.61580005  0.63411798  0.19891034    -0.19700
H717        H  0.63611276  0.58382468  0.19860455     0.15900
F718        F  0.60844408  0.55980009  0.28672947    -0.23400
H719        H  0.58728977  0.60918616  0.28635856     0.17700
C720        C  0.57073919  0.66533727  0.23088620     0.25700
C721        C  0.55735720  0.69041176  0.23806713    -0.12000
C722        C  0.56131385  0.70233179  0.26456560    -0.26000
C723        C  0.58057698  0.69022285  0.28296349     0.36600
C724        C  0.59443523  0.66567243  0.27557726    -0.27600
F725        F  0.56401292  0.65273195  0.20640010    -0.19700
H726        H  0.54207679  0.69915771  0.22391174     0.15900
F727        F  0.58477173  0.70129881  0.30874869    -0.23500
H728        H  0.60859589  0.65632337  0.29049345     0.17800
C729        C  0.39409952  0.38673674  0.78805635    -0.27500
C730        C  0.40858762  0.38195498  0.76294364     0.06100
C731        C  0.41120800  0.40404316  0.74367731     0.25700
C732        C  0.39776143  0.42943584  0.74841456    -0.12000
C733        C  0.38171085  0.43367757  0.77260272    -0.25900
C734        C  0.38092040  0.41246452  0.79302005     0.36500
C735        C  0.41989012  0.35382084  0.75603384     0.20500
F736        F  0.42638814  0.40095023  0.71991759    -0.19700
H737        H  0.39922565  0.44559242  0.73260158     0.15900
F738        F  0.36593491  0.41580191  0.81685469    -0.23400
H739        H  0.39186462  0.37012604  0.80328386     0.17700
C740        C  0.43614956  0.33860423  0.77518452     0.25700
C741        C  0.44896139  0.31356919  0.76699017    -0.12000
C742        C  0.44613303  0.30356809  0.73952670    -0.26000
C743        C  0.42848280  0.31788023  0.72096644     0.36600
C744        C  0.41528711  0.34252025  0.72931149    -0.27600
F745        F  0.44130392  0.34886010  0.80110637    -0.19700
H746        H  0.46273818  0.30309674  0.78153754     0.15900
F747        F  0.42479500  0.30862398  0.69439919    -0.23500
H748        H  0.40209378  0.35332673  0.71447268     0.17800
C749        C  0.43239223  0.66274191  0.77546699    -0.27500
C750        C  0.41511422  0.64875170  0.75627674     0.06100
C751        C  0.40915467  0.66186242  0.73062196     0.25700
C752        C  0.42254509  0.68677423  0.72321941    -0.12000
C753        C  0.44158953  0.69962897  0.74145351    -0.25900
C754        C  0.44544415  0.68804708  0.76823057     0.36500
C755        C  0.40446202  0.62004515  0.76228588     0.06100
F756        F  0.39091272  0.65019978  0.71231546    -0.19700
H757        H  0.41889862  0.69544353  0.70264301     0.15900
F758        F  0.46366957  0.69977797  0.78648502    -0.23400
H759        H  0.43702269  0.65331296  0.79549035     0.17700
C760        C  0.40649284  0.59883949  0.74195371     0.25700
C761        C  0.39401198  0.57282042  0.74634177    -0.12000
C762        C  0.37971757  0.56694853  0.77129568    -0.26000
C763        C  0.37977060  0.58723009  0.79268682     0.36600
C764        C  0.39194078  0.61359642  0.78809061    -0.27600
F765        F  0.42039660  0.60328569  0.71763394    -0.19700
H766        H  0.39494742  0.55739630  0.72976620     0.15900
F767        F  0.36665661  0.58228703  0.81733526    -0.23500
H768        H  0.39058603  0.62936070  0.80430408     0.17800
C769        C  0.22291403  0.61201578  0.62061528    -0.27500
C770        C  0.24784457  0.59781407  0.62638915     0.06100
C771        C  0.26784891  0.59473653  0.60510739     0.25700
C772        C  0.26392788  0.60757411  0.57931252    -0.12000
C773        C  0.23978671  0.62323718  0.57400895    -0.25900
C774        C  0.21880764  0.62463172  0.59457535     0.36500
C775        C  0.25327904  0.58640667  0.65454885     0.06100
F776        F  0.29135901  0.57951971  0.60934980    -0.19700
H777        H  0.28016173  0.60584052  0.56364130     0.15900
F778        F  0.19524000  0.63972059  0.59025999    -0.23400
H779        H  0.20711430  0.61427719  0.63665232     0.17700
C780        C  0.27878967  0.59183881  0.66797423     0.25700
C781        C  0.28587572  0.57730233  0.69215765    -0.12000
C782        C  0.26741573  0.55765052  0.70370929    -0.26000
C783        C  0.24081096  0.55421487  0.69185374     0.36600
C784        C  0.23386217  0.56849778  0.66733586    -0.27600
F785        F  0.29730033  0.61042525  0.65710125    -0.19700
H786        H  0.30635055  0.58045893  0.70119506     0.15900
F787        F  0.22260602  0.53515117  0.70237675    -0.23500
H788        H  0.21400092  0.56427178  0.65742702     0.17800
C789        C  0.34631701  0.72440073  0.41747805    -0.27500
C790        C  0.35606552  0.75206585  0.41907913     0.06100
C791        C  0.33955570  0.77218459  0.43285050     0.25700
C792        C  0.31500582  0.76408288  0.44672119    -0.12000
C793        C  0.30662962  0.73586693  0.44706481    -0.25900
C794        C  0.32199371  0.71630457  0.43128463     0.36500
C795        C  0.38390654  0.75902136  0.40716212     0.06100
F796        F  0.34808815  0.79922404  0.43455087    -0.19700
H797        H  0.30365351  0.77951812  0.45878156     0.15900
F798        F  0.31420328  0.68897442  0.43019824    -0.23400
H799        H  0.35809836  0.70872614  0.40614977     0.17700
C800        C  0.40706435  0.74183350  0.41288173     0.25700
C801        C  0.43237461  0.74611470  0.39904811    -0.12000
C802        C  0.43542463  0.76796822  0.37971601    -0.26000
C803        C  0.41285750  0.78628130  0.37525491     0.36600
C804        C  0.38729319  0.78170053  0.38878730    -0.27600
F805        F  0.40511190  0.72057439  0.43160154    -0.19700
H806        H  0.44951969  0.73192770  0.40303702     0.15900
F807        F  0.41484307  0.80736272  0.35635274    -0.23500
H808        H  0.36978435  0.79513336  0.38393401     0.17800
C809        C  0.40279702  0.74736424  0.59872036    -0.27500
C810        C  0.38009391  0.76324304  0.60821368     0.06100
C811        C  0.38444953  0.78421455  0.62831593     0.25700
C812        C  0.41113213  0.78831699  0.63951976    -0.12000
C813        C  0.43352487  0.77132426  0.63099222    -0.25900
C814        C  0.42925827  0.75124174  0.61003562     0.36500
C815        C  0.35202574  0.75628907  0.59769224     0.06100
F816        F  0.36271250  0.79941388  0.63829510    -0.19700
H817        H  0.41393961  0.80354854  0.65605886     0.15900
F818        F  0.45055722  0.73484299  0.60105870    -0.23400
H819        H  0.39980177  0.73134016  0.58296847     0.17700
C820        C  0.33671626  0.77539822  0.58156974     0.25700
C821        C  0.31313241  0.76632490  0.56685093    -0.12000
C822        C  0.30480310  0.73809818  0.56793630    -0.26000
C823        C  0.31887784  0.71969256  0.58600682     0.36600
C824        C  0.34224211  0.72879247  0.60071064    -0.27600
F825        F  0.34591728  0.80205905  0.57813979    -0.19700
H826        H  0.30272115  0.78082877  0.55296944     0.15900
F827        F  0.31098294  0.69247710  0.58830549    -0.23500
H828        H  0.35367866  0.71391291  0.61334645     0.17800
C829        C  0.22589234  0.37827776  0.62214830    -0.27500
C830        C  0.24958195  0.39499520  0.62674937     0.06100
C831        C  0.26790994  0.40008714  0.60432627     0.25700
C832        C  0.26314275  0.38794622  0.57826128    -0.12000
C833        C  0.23995611  0.37054172  0.57374803    -0.25900
C834        C  0.22103513  0.36613102  0.59591628     0.36500
C835        C  0.25555833  0.40703494  0.65476679     0.06100
F836        F  0.29053013  0.41689314  0.60756670    -0.19700
H837        H  0.27801517  0.39180067  0.56164566     0.15900
F838        F  0.19870229  0.34891677  0.59277984    -0.23400
H839        H  0.21158791  0.37390712  0.63912458     0.17700
C840        C  0.23542678  0.42267246  0.66942362     0.25700
C841        C  0.24286701  0.43744108  0.69363906    -0.12000
C842        C  0.27048422  0.43699524  0.70344970    -0.26000
C843        C  0.28996204  0.41953092  0.68999240     0.36600
C844        C  0.28246013  0.40463597  0.66605539    -0.27600
F845        F  0.20919492  0.42544366  0.65920240    -0.19700
H846        H  0.22752325  0.45082012  0.70351422     0.15900
F847        F  0.31665724  0.41779064  0.69926018    -0.23500
H848        H  0.29809009  0.39202803  0.65562563     0.17800
C849        C  0.34494348  0.26982492  0.59759022    -0.27500
C850        C  0.35796482  0.24445300  0.59072724     0.06100
C851        C  0.34515130  0.22631321  0.57154043     0.25700
C852        C  0.32060799  0.23445771  0.55805644    -0.12000
C853        C  0.30876527  0.26085807  0.56336796    -0.25900
C854        C  0.32069080  0.27811827  0.58396250     0.36500
C855        C  0.38594986  0.23852516  0.60205854     0.06100
F856        F  0.35743306  0.20177386  0.56430756    -0.19700
H857        H  0.31197339  0.22092647  0.54207561     0.15900
F858        F  0.30963130  0.30355004  0.59008200    -0.23400
H859        H  0.35429102  0.28381349  0.61276740     0.17700
C860        C  0.40721488  0.25855893  0.59912146     0.25700
C861        C  0.43279810  0.25468176  0.61219015    -0.12000
C862        C  0.43781270  0.23073698  0.62836048    -0.26000
C863        C  0.41710034  0.20981670  0.63001038     0.36600
C864        C  0.39130887  0.21377420  0.61688385    -0.27600
F865        F  0.40302018  0.28223701  0.58403310    -0.19700
H866        H  0.44848509  0.27093494  0.61035587     0.15900
F867        F  0.42098171  0.18655346  0.64580579    -0.23500
H868        H  0.37511199  0.19812906  0.61932637     0.17800
C869        C  0.41072461  0.60116641  0.26722675    -0.27500
C870        C  0.40768592  0.62084346  0.24566975     0.06100
C871        C  0.39365102  0.61291169  0.22116374     0.25700
C872        C  0.38138528  0.58629484  0.21912192    -0.12000
C873        C  0.38290412  0.56719362  0.24148141    -0.25900
C874        C  0.39851714  0.57467012  0.26526543     0.36500
C875        C  0.41811965  0.64981861  0.24990636     0.06100
F876        F  0.39034409  0.63143990  0.19995355    -0.19700
H877        H  0.36942805  0.58120946  0.20061569     0.15900
F878        F  0.40146434  0.55666249  0.28698963    -0.23400
H879        H  0.42205888  0.60663967  0.28602108     0.17700
C880        C  0.41012258  0.66483709  0.27385472     0.25700
C881        C  0.42302533  0.69017455  0.28042725    -0.12000
C882        C  0.44418381  0.70114915  0.26332229    -0.26000
C883        C  0.45063215  0.68733003  0.23811470     0.36600
C884        C  0.43762662  0.66180685  0.23150487    -0.27600
F885        F  0.39061176  0.65436901  0.29158314    -0.19700
H886        H  0.41759190  0.70045799  0.29986154     0.15900
F887        F  0.47129221  0.69700017  0.22126098    -0.23500
H888        H  0.44403442  0.65057924  0.21292274     0.17800
C889        C  0.26845692  0.59885776  0.40695801    -0.27500
C890        C  0.24749646  0.60136241  0.38670509     0.06100
C891        C  0.22207279  0.61403677  0.39395711     0.25700
C892        C  0.21855059  0.62561759  0.42059099    -0.12000
C893        C  0.24031798  0.62469669  0.44026024    -0.25900
C894        C  0.26503820  0.61041392  0.43341887     0.36500
C895        C  0.25282914  0.59044354  0.35831610     0.06100
F896        F  0.20127225  0.61650477  0.37492267    -0.19700
H897        H  0.19934066  0.63655965  0.42530123     0.15900
F898        F  0.28622910  0.60811882  0.45205592    -0.23400
H899        H  0.28781743  0.58824234  0.40208801     0.17700
C900        C  0.27796367  0.59696377  0.34458923     0.25700
C901        C  0.28595250  0.58205993  0.32087500    -0.12000
C902        C  0.26878050  0.56084669  0.31014890    -0.26000
C903        C  0.24232377  0.55635501  0.32215517     0.36600
C904        C  0.23453577  0.57097730  0.34622808    -0.27600
F905        F  0.29543252  0.61679308  0.35496409    -0.19700
H906        H  0.30621113  0.58615419  0.31167451     0.15900
F907        F  0.22517075  0.53597952  0.31234299    -0.23500
H908        H  0.21508081  0.56568334  0.35647711     0.17800
C909        C  0.28197764  0.40534002  0.34575136    -0.27500
C910        C  0.25526932  0.40801004  0.35746278     0.06100
C911        C  0.23542861  0.42500825  0.34410389     0.25700
C912        C  0.24298952  0.44064150  0.32053196    -0.12000
C913        C  0.27042364  0.43967693  0.31031680    -0.25900
C914        C  0.28957552  0.42107476  0.32243620     0.36500
C915        C  0.24975145  0.39575342  0.38527847     0.06100
F916        F  0.20959080  0.42835625  0.35519626    -0.19700
H917        H  0.22805780  0.45507876  0.31159477     0.15900
F918        F  0.31603187  0.41909930  0.31247684    -0.23400
H919        H  0.29740718  0.39202933  0.35554536     0.17700
C920        C  0.22702006  0.37777857  0.39014882     0.25700
C921        C  0.22322852  0.36576134  0.41657382    -0.12000
C922        C  0.24229564  0.37120089  0.43818104    -0.26000
C923        C  0.26453731  0.38969276  0.43344546     0.36600
C924        C  0.26809292  0.40194858  0.40727764    -0.27600
F925        F  0.20948640  0.37067588  0.36905900    -0.19700
H926        H  0.20632156  0.35102123  0.41973632     0.15900
F927        F  0.28305947  0.39555602  0.45406137    -0.23500
H928        H  0.28551158  0.41605664  0.40401622     0.17800
C929        C  0.66642895  0.23022100  0.43598330    -0.27500
C930        C  0.65267501  0.24895235  0.41815914     0.06100
C931        C  0.66455383  0.27531941  0.41290844     0.25700
C932        C  0.68828757  0.28381385  0.42734920    -0.12000
C933        C  0.70069565  0.26612530  0.44715697    -0.25900
C934        C  0.69038902  0.23866002  0.45039216     0.36500
C935        C  0.62453191  0.24249728  0.40748046     0.06100
F936        F  0.65234533  0.29339465  0.39479827    -0.19700
H937        H  0.69610322  0.30486207  0.42410634     0.15900
F938        F  0.70184050  0.22086255  0.46924868    -0.23400
H939        H  0.65758927  0.20976094  0.44015605     0.17700
C940        C  0.61920430  0.21838767  0.39160942     0.25700
C941        C  0.59274452  0.21410410  0.38009166    -0.12000
C942        C  0.57127535  0.23380929  0.38422688    -0.26000
C943        C  0.57640117  0.25716357  0.40137778     0.36600
C944        C  0.60274779  0.26132100  0.41289997    -0.27600
F945        F  0.63988539  0.19982307  0.38603919    -0.19700
H946        H  0.58946708  0.19599984  0.36685704     0.15900
F947        F  0.55619210  0.27633529  0.40659774    -0.23500
H948        H  0.60635066  0.27966697  0.42572897     0.17800
C949        C  0.34790528  0.26779567  0.41904071    -0.27500
C950        C  0.35400442  0.23914518  0.41796475     0.06100
C951        C  0.33575220  0.21992435  0.43062456     0.25700
C952        C  0.31209055  0.22957897  0.44495873    -0.12000
C953        C  0.30679447  0.25846196  0.44709114    -0.25900
C954        C  0.32463087  0.27742752  0.43341165     0.36500
C955        C  0.37994275  0.23042350  0.40388856     0.06100
F956        F  0.34100482  0.19204486  0.42940316    -0.19700
H957        H  0.29877319  0.21465114  0.45558420     0.15900
F958        F  0.32005175  0.30545226  0.43464939    -0.23400
H959        H  0.36176645  0.28289013  0.40935696     0.17700
C960        C  0.38448922  0.23870136  0.37617179     0.25700
C961        C  0.41100759  0.23698514  0.36461834    -0.12000
C962        C  0.43344584  0.22673962  0.38031241    -0.26000
C963        C  0.42869204  0.21637590  0.40733957     0.36600
C964        C  0.40194623  0.21840652  0.41916379    -0.27600
F965        F  0.36350785  0.24987442  0.36078756    -0.19700
H966        H  0.41424449  0.24444951  0.34348029     0.15900
F967        F  0.45010153  0.20627081  0.42284071    -0.23500
H968        H  0.39879187  0.21221489  0.44069881     0.17800
C969        C  0.60560788  0.38980343  0.22672519    -0.27500
C970        C  0.59068934  0.38566359  0.25165218     0.06100
C971        C  0.58829135  0.40795990  0.27068820     0.25700
C972        C  0.60220946  0.43314615  0.26575776    -0.12000
C973        C  0.61864462  0.43675298  0.24169170    -0.25900
C974        C  0.61947295  0.41515336  0.22168762     0.36500
C975        C  0.57945777  0.35763685  0.25886967     0.06100
F976        F  0.57305132  0.40512916  0.29444845    -0.19700
H977        H  0.60092289  0.44955663  0.28133287     0.15900
F978        F  0.63536303  0.41765717  0.19834421    -0.23400
H979        H  0.60774606  0.37287080  0.21181867     0.17700
C980        C  0.56171262  0.34295518  0.24064948     0.25700
C981        C  0.54994283  0.31737474  0.24889837    -0.12000
C982        C  0.55559695  0.30611713  0.27545331    -0.26000
C983        C  0.57460694  0.32016594  0.29296631     0.36600
C984        C  0.58636431  0.34558371  0.28467605    -0.27600
F985        F  0.55447048  0.35411581  0.21562895    -0.19700
H986        H  0.53511057  0.30722473  0.23514942     0.15900
F987        F  0.58125778  0.30976475  0.31848864    -0.23500
H988        H  0.60058459  0.35620274  0.29872869     0.17800
C989        C  0.40735263  0.33503423  0.28560187    -0.27500
C990        C  0.41348962  0.34851089  0.26019737     0.06100
C991        C  0.43198261  0.33551707  0.24134570     0.25700
C992        C  0.44520238  0.31047032  0.24865045    -0.12000
C993        C  0.44077572  0.29849117  0.27502740    -0.25900
C994        C  0.42113797  0.31048028  0.29316006     0.36500
C995        C  0.40270267  0.37723388  0.25522221     0.06100
F996        F  0.43933402  0.34821955  0.21708261    -0.19700
H997        H  0.46078816  0.30181609  0.23472007     0.15900
F998        F  0.41644624  0.29926527  0.31879669    -0.23400
H999        H  0.39286276  0.34433120  0.30027364     0.17700
C1000       C  0.39077913  0.38518591  0.22957780     0.25700
C1001       C  0.37988048  0.41215068  0.22616171    -0.12000
C1002       C  0.38016943  0.43147036  0.24834570    -0.26000
C1003       C  0.39276611  0.42368911  0.27371523     0.36600
C1004       C  0.40404227  0.39699744  0.27693218    -0.27600
F1005       F  0.38818242  0.36651626  0.20836767    -0.19700
H1006       H  0.36984307  0.41738750  0.20658739     0.15900
F1007       F  0.39376950  0.44165552  0.29567656    -0.23500
H1008       H  0.41359017  0.39161689  0.29671295     0.17800
C1009       C  0.62706534  0.90932846  0.78662868    -0.27500
C1010       C  0.63371848  0.89166344  0.76419346     0.06100
C1011       C  0.65888586  0.89617489  0.74967965     0.25700
C1012       C  0.67652138  0.91842678  0.75706971    -0.12000
C1013       C  0.66953095  0.93663918  0.77912467    -0.25900
C1014       C  0.64464648  0.93147191  0.79411680     0.36500
C1015       C  0.61304537  0.87045718  0.75461700     0.06100
F1016       F  0.66645256  0.87902277  0.72837112    -0.19700
H1017       H  0.69566680  0.92141391  0.74541831     0.15900
F1018       F  0.63673222  0.94817440  0.81564277    -0.23400
H1019       H  0.60763475  0.90657008  0.79786831     0.17700
C1020       C  0.59993409  0.85198910  0.77345210     0.25700
C1021       C  0.57810477  0.83457059  0.76449667    -0.12000
C1022       C  0.56886780  0.83520344  0.73660402    -0.26000
C1023       C  0.58290320  0.85298284  0.71759644     0.36600
C1024       C  0.60457529  0.87033190  0.72660919    -0.27600
F1025       F  0.60816059  0.85086777  0.80054314    -0.19700
H1026       H  0.56813882  0.82091787  0.77956144     0.15900
F1027       F  0.57542560  0.85425233  0.69028823    -0.23500
H1028       H  0.61411873  0.88452141  0.71175185     0.17800
C1029       C  0.64816322  0.09405466  0.74270877    -0.27500
C1030       C  0.63168612  0.10695172  0.76328655     0.06100
C1031       C  0.63508295  0.09930897  0.79129824     0.25700
C1032       C  0.65435019  0.07877488  0.79855302    -0.12000
C1033       C  0.67062193  0.06525166  0.77804143    -0.25900
C1034       C  0.66762514  0.07346978  0.74994449     0.36500
C1035       C  0.60928122  0.12647853  0.75526539     0.06100
F1036       F  0.61874550  0.11067513  0.81150607    -0.19700
H1037       H  0.65597188  0.07303361  0.82036795     0.15900
F1038       F  0.68295753  0.06134397  0.72940968    -0.23400
H1039       H  0.64562156  0.09969727  0.72094927     0.17700
C1040       C  0.60820533  0.15393624  0.76584645     0.25700
C1041       C  0.58618768  0.17170090  0.75846753    -0.12000
C1042       C  0.56509150  0.16227253  0.74041594    -0.26000
C1043       C  0.56601907  0.13452745  0.73042814     0.36600
C1044       C  0.58799284  0.11695713  0.73769560    -0.27600
F1045       F  0.62874435  0.16369283  0.78274856    -0.19700
H1046       H  0.58598026  0.19298151  0.76628856     0.15900
F1047       F  0.54539091  0.12415739  0.71398546    -0.23500
H1048       H  0.58820915  0.09565549  0.72990044     0.17800
C1049       C  0.74386343  0.34920805  0.10723961    -0.27500
C1050       C  0.76022459  0.37222891  0.11540128     0.06100
C1051       C  0.78603800  0.37666048  0.10222918     0.25700
C1052       C  0.79467951  0.35909628  0.08058115    -0.12000
C1053       C  0.77784389  0.33667614  0.07146953    -0.25900
C1054       C  0.75252827  0.33152374  0.08555551     0.36500
C1055       C  0.74956602  0.39266113  0.13618311     0.06100
F1056       F  0.80232867  0.39882577  0.10930069    -0.19700
H1057       H  0.81439142  0.36360277  0.07047085     0.15900
F1058       F  0.73600084  0.30960763  0.07835093    -0.23400
H1059       H  0.72411458  0.34514151  0.11747245     0.17700
C1060       C  0.72323008  0.40498799  0.13262484     0.25700
C1061       C  0.71416051  0.42597576  0.15079406    -0.12000
C1062       C  0.73114661  0.43531809  0.17288634    -0.26000
C1063       C  0.75727932  0.42237847  0.17687296     0.36600
C1064       C  0.76628924  0.40128687  0.15867142    -0.27600
F1065       F  0.70676832  0.39770859  0.11074046    -0.19700
H1066       H  0.69398073  0.43538939  0.14705333     0.15900
F1067       F  0.77435730  0.43022341  0.19807597    -0.23500
H1068       H  0.78654908  0.39186302  0.16195262     0.17800
C1069       C  0.72072340  0.41033141  0.88446860    -0.27500
C1070       C  0.74638196  0.39705536  0.88025783     0.06100
C1071       C  0.76319751  0.40499358  0.85756381     0.25700
C1072       C  0.75462126  0.42640402  0.83969977    -0.12000
C1073       C  0.72916972  0.44030352  0.84420239    -0.25900
C1074       C  0.71216083  0.43186289  0.86678067     0.36500
C1075       C  0.75642263  0.37668666  0.90102217     0.06100
F1076       F  0.78796853  0.39211273  0.85279821    -0.19700
H1077       H  0.76802718  0.43218344  0.82241376     0.15900
F1078       F  0.68764328  0.44487517  0.87241169    -0.23400
H1079       H  0.70772490  0.40463666  0.90210740     0.17700
C1080       C  0.78089537  0.38226570  0.91596996     0.25700
C1081       C  0.78971269  0.36397155  0.93675053    -0.12000
C1082       C  0.77432435  0.33967509  0.94319672    -0.26000
C1083       C  0.74976238  0.33402396  0.92802273     0.36600
C1084       C  0.74087043  0.35255312  0.90720057    -0.27600
F1085       F  0.79576570  0.40599528  0.91115694    -0.19700
H1086       H  0.80856533  0.36916480  0.94806121     0.15900
F1087       F  0.73435629  0.31073331  0.93317203    -0.23500
H1088       H  0.72183204  0.34811580  0.89587238     0.17800
C1089       C  0.74587026  0.16448745  0.93112402    -0.27500
C1090       C  0.76544987  0.15241428  0.91283378     0.06100
C1091       C  0.79070353  0.16674014  0.90799768     0.25700
C1092       C  0.79734860  0.19076156  0.92335754    -0.12000
C1093       C  0.77870916  0.20157632  0.94328797    -0.25900
C1094       C  0.75229384  0.18892067  0.94610514     0.36500
C1095       C  0.76022141  0.12416978  0.90043738     0.06100
F1096       F  0.80929951  0.15719151  0.88885013    -0.19700
H1097       H  0.81759194  0.20040532  0.92034153     0.15900
F1098       F  0.73354112  0.19873371  0.96496318    -0.23400
H1099       H  0.72613324  0.15414390  0.93501200     0.17700
C1100       C  0.78084818  0.10319713  0.90145718     0.25700
C1101       C  0.77587924  0.07672251  0.88997749    -0.12000
C1102       C  0.75006547  0.07012748  0.87776366    -0.26000
C1103       C  0.72917803  0.09086149  0.87719586     0.36600
C1104       C  0.73426338  0.11754147  0.88844923    -0.27600
F1105       F  0.80566558  0.10797552  0.91421427    -0.19700
H1106       H  0.79234766  0.06123705  0.89071744     0.15900
F1107       F  0.70430775  0.08583194  0.86463529    -0.23500
H1108       H  0.71802636  0.13323916  0.88734333     0.17800
C1109       C  0.92028229  0.73601589  0.63637446    -0.27500
C1110       C  0.89922411  0.75542981  0.62976817     0.06100
C1111       C  0.89849994  0.78105138  0.64423529     0.25700
C1112       C  0.91896855  0.78737621  0.66407794    -0.12000
C1113       C  0.94020278  0.76811002  0.67039374    -0.25900
C1114       C  0.94049568  0.74217219  0.65657377     0.36500
C1115       C  0.87775169  0.74825323  0.60847724     0.06100
F1116       F  0.87767428  0.79971231  0.63970360    -0.19700
H1117       H  0.91818780  0.80741912  0.67465336     0.15900
F1118       F  0.96103036  0.72332823  0.66162048    -0.23400
H1119       H  0.92133654  0.71614625  0.62551168     0.17700
C1120       C  0.87053325  0.76686108  0.58676188     0.25700
C1121       C  0.85057988  0.75913555  0.56672845    -0.12000
C1122       C  0.83803702  0.73257399  0.56765252    -0.26000
C1123       C  0.84522102  0.71413906  0.58938677     0.36600
C1124       C  0.86468699  0.72198662  0.60956621    -0.27600
F1125       F  0.88364360  0.79192365  0.58412429    -0.19700
H1126       H  0.84575632  0.77344685  0.54987493     0.15900
F1127       F  0.83325008  0.68846044  0.59123805    -0.23500
H1128       H  0.86963219  0.70739063  0.62614581     0.17800
C1129       C  0.10412361  0.78037000  0.63900066    -0.27500
C1130       C  0.11412423  0.75284385  0.63921979     0.06100
C1131       C  0.10268723  0.73355057  0.65826246     0.25700
C1132       C  0.08046911  0.74135504  0.67555046    -0.12000
C1133       C  0.06932197  0.76854780  0.67424743    -0.25900
C1134       C  0.08202105  0.78825771  0.65627296     0.36500
C1135       C  0.13440800  0.74396987  0.61762818     0.06100
F1136       F  0.11277033  0.70706034  0.65986759    -0.19700
H1137       H  0.07164544  0.72589265  0.68955170     0.15900
F1138       F  0.07293732  0.81512358  0.65493979    -0.23400
H1139       H  0.11273904  0.79557078  0.62457161     0.17700
C1140       C  0.12782130  0.72168416  0.59969509     0.25700
C1141       C  0.14553919  0.71483095  0.57766164    -0.12000
C1142       C  0.17015608  0.73013200  0.57272867    -0.26000
C1143       C  0.17698511  0.75229716  0.59090340     0.36600
C1144       C  0.15913648  0.75917219  0.61309619    -0.27600
F1145       F  0.10351555  0.70735890  0.60260824    -0.19700
H1146       H  0.13954902  0.69777817  0.56399357     0.15900
F1147       F  0.20093243  0.76708476  0.58748322    -0.23500
H1148       H  0.16450250  0.77649544  0.62668433     0.17800
C1149       C  0.89236248  0.88969019  0.72607126    -0.27500
C1150       C  0.88493406  0.90116931  0.75199822     0.06100
C1151       C  0.90420698  0.90049225  0.77406665     0.25700
C1152       C  0.92983074  0.88717490  0.77067640    -0.12000
C1153       C  0.93684999  0.87437557  0.74520247    -0.25900
C1154       C  0.91810813  0.87634429  0.72261008     0.36500
C1155       C  0.85670978  0.91267042  0.75664033     0.06100
F1156       F  0.89806397  0.91241056  0.79907751    -0.19700
H1157       H  0.94395168  0.88628383  0.78829867     0.15900
F1158       F  0.92382330  0.86393913  0.69774711    -0.23400
H1159       H  0.87773153  0.89003695  0.70885097     0.17700
C1160       C  0.84631674  0.93456821  0.74010230     0.25700
C1161       C  0.82103063  0.94737472  0.74710908    -0.12000
C1162       C  0.80597940  0.93868598  0.77081421    -0.26000
C1163       C  0.81548258  0.91546975  0.78610018     0.36600
C1164       C  0.84058874  0.90258497  0.77896922    -0.27600
F1165       F  0.86157502  0.94494177  0.71855425    -0.19700
H1166       H  0.81433102  0.96546030  0.73524366     0.15900
F1167       F  0.80113237  0.90602640  0.80867702    -0.23500
H1168       H  0.84801553  0.88528565  0.79155110     0.17800
C1169       C  0.40225814  0.15114101  0.77177385    -0.27500
C1170       C  0.39422476  0.12874151  0.75449208     0.06100
C1171       C  0.40811188  0.12473235  0.72902377     0.25700
C1172       C  0.42981445  0.14255628  0.72116198    -0.12000
C1173       C  0.43830896  0.16488119  0.73846264    -0.25900
C1174       C  0.42401935  0.16915768  0.76387696     0.36500
C1175       C  0.37263796  0.10848605  0.76369037     0.06100
F1176       F  0.40146444  0.10281819  0.71222383    -0.19700
H1177       H  0.44028294  0.13846919  0.70152707     0.15900
F1178       F  0.43100001  0.19057877  0.78114742    -0.23400
H1179       H  0.39171740  0.15456818  0.79150117     0.17700
C1180       C  0.37601902  0.09373090  0.78876653     0.25700
C1181       C  0.35689040  0.07306998  0.79643666    -0.12000
C1182       C  0.33395449  0.06646883  0.77926473    -0.26000
C1183       C  0.33031684  0.08162333  0.75428913     0.36600
C1184       C  0.34954887  0.10241528  0.74664018    -0.27600
F1185       F  0.39858604  0.09835917  0.80523833    -0.19700
H1186       H  0.36055307  0.06168530  0.81563841     0.15900
F1187       F  0.30830253  0.07642624  0.73726206    -0.23500
H1188       H  0.34658414  0.11365681  0.72722892     0.17800
C1189       C  0.35616205  0.90811342  0.74137076    -0.27500
C1190       C  0.37514361  0.89712003  0.76077350     0.06100
C1191       C  0.37495179  0.90729447  0.78828195     0.25700
C1192       C  0.35615618  0.92813850  0.79615337    -0.12000
C1193       C  0.33723176  0.93946263  0.77676307    -0.25900
C1194       C  0.33730253  0.92901604  0.74919927     0.36500
C1195       C  0.39646997  0.87666437  0.75172876     0.06100
F1196       F  0.39377936  0.89797880  0.80726359    -0.19700
H1197       H  0.35671212  0.93564188  0.81749413     0.15900
F1198       F  0.31965760  0.93930598  0.72959305    -0.23400
H1199       H  0.35614277  0.90063783  0.72000669     0.17700
C1200       C  0.40077724  0.85149710  0.76631967     0.25700
C1201       C  0.42240741  0.83346380  0.75852425    -0.12000
C1202       C  0.43997866  0.84009454  0.73592887    -0.26000
C1203       C  0.43507249  0.86508798  0.72096010     0.36600
C1204       C  0.41355129  0.88303581  0.72884841    -0.27600
F1205       F  0.38386827  0.84420871  0.78788545    -0.19700
H1206       H  0.42529921  0.81423035  0.77012661     0.15900
F1207       F  0.45133658  0.87266183  0.69898692    -0.23500
H1208       H  0.41063928  0.90238834  0.71742789     0.17800
C1209       C  0.10449641  0.89940728  0.77094289    -0.27500
C1210       C  0.12436101  0.89681561  0.74954438     0.06100
C1211       C  0.11682432  0.88337817  0.72454753     0.25700
C1212       C  0.09017420  0.87180788  0.72166661    -0.12000
C1213       C  0.07078583  0.87314823  0.74370434    -0.25900
C1214       C  0.07803509  0.88768282  0.76821584     0.36500
C1215       C  0.15290845  0.90759448  0.75431353     0.06100
F1216       F  0.13565502  0.87999334  0.70364498    -0.19700
H1217       H  0.08522631  0.86039209  0.70260687     0.15900
F1218       F  0.05981226  0.89004684  0.78981183    -0.23400
H1219       H  0.10974397  0.91024636  0.79027853     0.17700
C1220       C  0.16550234  0.92664207  0.73578491     0.25700
C1221       C  0.19006267  0.94054146  0.74345801    -0.12000
C1222       C  0.20201435  0.93587298  0.76984663    -0.26000
C1223       C  0.19072978  0.91498563  0.78721000     0.36600
C1224       C  0.16646193  0.90093265  0.77942780    -0.27600
F1225       F  0.15278681  0.93382520  0.71151985    -0.19700
H1226       H  0.19816221  0.95663790  0.72997257     0.15900
F1227       F  0.20206020  0.90945775  0.81260055    -0.23500
H1228       H  0.15745544  0.88602924  0.79361245     0.17800
C1229       C  0.73624428  0.65558959  0.90939531    -0.27500
C1230       C  0.75061580  0.63042446  0.90451541     0.06100
C1231       C  0.77334568  0.62360572  0.92174984     0.25700
C1232       C  0.78168125  0.64170237  0.94305154    -0.12000
C1233       C  0.76743349  0.66691758  0.94802075    -0.25900
C1234       C  0.74442041  0.67364967  0.93099039     0.36500
C1235       C  0.74183662  0.61096859  0.88190376     0.06100
F1236       F  0.78712405  0.59900910  0.91851585    -0.19700
H1237       H  0.79923930  0.63571425  0.95592895     0.15900
F1238       F  0.73013762  0.69787363  0.93475193    -0.23400
H1239       H  0.71883117  0.66143352  0.89626342     0.17700
C1240       C  0.71389232  0.60242935  0.87920414     0.25700
C1241       C  0.70661557  0.58160541  0.85996400    -0.12000
C1242       C  0.72696447  0.56887092  0.84294045    -0.26000
C1243       C  0.75468397  0.57858272  0.84466544     0.36600
C1244       C  0.76189414  0.59940895  0.86387797    -0.27600
F1245       F  0.69381242  0.61313247  0.89610663    -0.19700
H1246       H  0.68502976  0.57498548  0.85891474     0.15900
F1247       F  0.77512444  0.56742110  0.82852158    -0.23500
H1248       H  0.78344262  0.60613642  0.86509179     0.17800
C1249       C  0.72673845  0.59474030  0.13212702    -0.27500
C1250       C  0.75266470  0.60736283  0.13708449     0.06100
C1251       C  0.76909312  0.59781201  0.15942960     0.25700
C1252       C  0.75957553  0.57592840  0.17639239    -0.12000
C1253       C  0.73351114  0.56324035  0.17145573    -0.25900
C1254       C  0.71718451  0.57296986  0.14897874     0.36500
C1255       C  0.76223458  0.62990193  0.11814652     0.06100
F1256       F  0.79401844  0.60998325  0.16523888    -0.19700
H1257       H  0.77258726  0.56906864  0.19354237     0.15900
F1258       F  0.69200863  0.56144469  0.14296319    -0.23400
H1259       H  0.71392266  0.60154492  0.11478775     0.17700
C1260       C  0.78810800  0.62811823  0.10451043     0.25700
C1261       C  0.79508493  0.64740449  0.08376398    -0.12000
C1262       C  0.77635159  0.66869193  0.07594636    -0.26000
C1263       C  0.75102514  0.67126123  0.09062599     0.36600
C1264       C  0.74411841  0.65198952  0.11146882    -0.27600
F1265       F  0.80590334  0.60671810  0.10987791    -0.19700
H1266       H  0.81483455  0.64491101  0.07306065     0.15900
F1267       F  0.73265491  0.69197151  0.08458643    -0.23500
H1268       H  0.72418970  0.65387147  0.12198273     0.17800
C1269       C  0.90598440  0.76985131  0.84047572    -0.27500
C1270       C  0.91426456  0.74757017  0.85768669     0.06100
C1271       C  0.93613866  0.73004561  0.84893207     0.25700
C1272       C  0.95055288  0.73590933  0.82417157    -0.12000
C1273       C  0.94352392  0.75943730  0.80813952    -0.25900
C1274       C  0.92066005  0.77595218  0.81603813     0.36500
C1275       C  0.90141349  0.74426593  0.88560214     0.06100
F1276       F  0.94506218  0.70877498  0.86543326    -0.19700
H1277       H  0.96863352  0.72345466  0.81874069     0.15900
F1278       F  0.91355931  0.79888642  0.80090759    -0.23400
H1279       H  0.88890378  0.78332153  0.84667127     0.17700
C1280       C  0.90037586  0.76710483  0.90408424     0.25700
C1281       C  0.88717945  0.76449193  0.92990939    -0.12000
C1282       C  0.87475647  0.73906888  0.93795974    -0.26000
C1283       C  0.87659024  0.71589399  0.91976704     0.36600
C1284       C  0.88987169  0.71856055  0.89384621    -0.27600
F1285       F  0.91222348  0.79199849  0.89718798    -0.19700
H1286       H  0.88635297  0.78262567  0.94347502     0.15900
F1287       F  0.86457019  0.69101952  0.92638144    -0.23500
H1288       H  0.89045161  0.70075234  0.87984121     0.17800
C1289       C  0.76117279  0.89996804  0.91408421    -0.27500
C1290       C  0.74054813  0.87977000  0.90900998     0.06100
C1291       C  0.71704711  0.88688119  0.89317106     0.25700
C1292       C  0.71494561  0.91361338  0.88144330    -0.12000
C1293       C  0.73631679  0.93348790  0.88532265    -0.25900
C1294       C  0.75915042  0.92661895  0.90242230     0.36500
C1295       C  0.74446514  0.85129167  0.92005077     0.06100
F1296       F  0.69697949  0.86755556  0.88781935    -0.19700
H1297       H  0.69733028  0.91823212  0.86808726     0.15900
F1298       F  0.77987173  0.94538118  0.90732529    -0.23400
H1299       H  0.77918855  0.89483577  0.92671081     0.17700
C1300       C  0.76765657  0.83551951  0.91158433     0.25700
C1301       C  0.77513683  0.81152723  0.92632521    -0.12000
C1302       C  0.75948992  0.80286076  0.94955941    -0.26000
C1303       C  0.73483307  0.81724791  0.95646014     0.36600
C1304       C  0.72741491  0.84139961  0.94171853    -0.27600
F1305       F  0.78399468  0.84432645  0.89012865    -0.19700
H1306       H  0.79415442  0.80066571  0.92067440     0.15900
F1307       F  0.71966691  0.80981920  0.97924818    -0.23500
H1308       H  0.70954589  0.85348857  0.94850715     0.17800
C1309       C  0.09748009  0.78466336  0.38134318    -0.27500
C1310       C  0.10705044  0.75692403  0.38173451     0.06100
C1311       C  0.09541156  0.73770257  0.36257426     0.25700
C1312       C  0.07441428  0.74608469  0.34399094    -0.12000
C1313       C  0.06459245  0.77379072  0.34391018    -0.25900
C1314       C  0.07684397  0.79314339  0.36260122     0.36500
C1315       C  0.12813532  0.74807206  0.40293416     0.06100
F1316       F  0.10445674  0.71081366  0.36157152    -0.19700
H1317       H  0.06564074  0.73073557  0.32983094     0.15900
F1318       F  0.06893511  0.82041934  0.36300521    -0.23400
H1319       H  0.10554390  0.79985895  0.39606844     0.17700
C1320       C  0.15142186  0.76492589  0.40959115     0.25700
C1321       C  0.17020017  0.75671514  0.43049087    -0.12000
C1322       C  0.16645636  0.73141608  0.44502545    -0.26000
C1323       C  0.14330001  0.71446678  0.43805427     0.36600
C1324       C  0.12439447  0.72290463  0.41757144    -0.27600
F1325       F  0.15637898  0.78914157  0.39561878    -0.19700
H1326       H  0.18780495  0.77014991  0.43516082     0.15900
F1327       F  0.13842598  0.68980178  0.45127783    -0.23500
H1328       H  0.10636823  0.70982503  0.41357507     0.17800
C1329       C  0.90400613  0.73561524  0.35771985    -0.27500
C1330       C  0.89115663  0.75498607  0.37571341     0.06100
C1331       C  0.90020812  0.78292043  0.37546148     0.25700
C1332       C  0.92196808  0.79114143  0.35790723    -0.12000
C1333       C  0.93542239  0.77173145  0.34026774    -0.25900
C1334       C  0.92586213  0.74383028  0.34006287     0.36500
C1335       C  0.87063922  0.74538241  0.39682333     0.06100
F1336       F  0.88911208  0.80198239  0.39332700    -0.19700
H1337       H  0.92863821  0.81279538  0.35863089     0.15900
F1338       F  0.93804801  0.72427851  0.32351491    -0.23400
H1339       H  0.89742270  0.71391701  0.35777207     0.17700
C1340       C  0.84473887  0.75875263  0.40051081     0.25700
C1341       C  0.82690408  0.75060150  0.42229002    -0.12000
C1342       C  0.83455286  0.72892287  0.44061007    -0.26000
C1343       C  0.86033717  0.71532158  0.43640780     0.36600
C1344       C  0.87799675  0.72348120  0.41475791    -0.27600
F1345       F  0.83664669  0.77953350  0.38298898    -0.19700
H1346       H  0.80712556  0.76123320  0.42480242     0.15900
F1347       F  0.86913237  0.69470923  0.45379094    -0.23500
H1348       H  0.89799529  0.71317422  0.41252668     0.17800
C1349       C  0.93366341  0.73905130  0.16599916    -0.27500
C1350       C  0.91540894  0.75832781  0.15351586     0.06100
C1351       C  0.90920987  0.78335456  0.16774888     0.25700
C1352       C  0.92302129  0.79003567  0.19252509    -0.12000
C1353       C  0.94278450  0.77168204  0.20397068    -0.25900
C1354       C  0.94722770  0.74558634  0.19107651     0.36500
C1355       C  0.90386621  0.75288878  0.12523400     0.06100
F1356       F  0.89027627  0.80169962  0.15736658    -0.19700
H1357       H  0.91909322  0.81014633  0.20222599     0.15900
F1358       F  0.96647956  0.72749100  0.20128602    -0.23400
H1359       H  0.93857673  0.71955027  0.15555951     0.17700
C1360       C  0.90503491  0.77363860  0.10438427     0.25700
C1361       C  0.89235610  0.76921459  0.07852326    -0.12000
C1362       C  0.87877819  0.74383739  0.07258737    -0.26000
C1363       C  0.87911776  0.72238905  0.09278658     0.36600
C1364       C  0.89152219  0.72697671  0.11887074    -0.27600
F1365       F  0.91842830  0.79826942  0.10898310    -0.19700
H1366       H  0.89268752  0.78594294  0.06325337     0.15900
F1367       F  0.86594443  0.69766414  0.08808196    -0.23500
H1368       H  0.89059104  0.71060495  0.13449198     0.17800
C1369       C  0.87329498  0.29155778  0.41154307    -0.27500
C1370       C  0.87407946  0.26393666  0.40157915     0.06100
C1371       C  0.85479843  0.24434471  0.41202690     0.25700
C1372       C  0.83590599  0.25203143  0.43283771    -0.12000
C1373       C  0.83582592  0.27936710  0.44367384    -0.25900
C1374       C  0.85429542  0.29932931  0.43226700     0.36500
C1375       C  0.89595776  0.25528363  0.38151394     0.06100
F1376       F  0.85429309  0.21769190  0.40219190    -0.19700
H1377       H  0.82173042  0.23631099  0.44091625     0.15900
F1378       F  0.85419630  0.32631677  0.44116694    -0.23400
H1379       H  0.88798191  0.30699666  0.40384928     0.17700
C1380       C  0.90166596  0.27105402  0.35739076     0.25700
C1381       C  0.92285548  0.26277228  0.33911600    -0.12000
C1382       C  0.93875953  0.23862080  0.34447946    -0.26000
C1383       C  0.93292957  0.22288652  0.36871413     0.36600
C1384       C  0.91186287  0.23128290  0.38697869    -0.27600
F1385       F  0.88646071  0.29417709  0.35120427    -0.19700
H1386       H  0.92670835  0.27529983  0.32065507     0.15900
F1387       F  0.94768161  0.19952766  0.37510529    -0.23500
H1388       H  0.90822471  0.21914420  0.40574800     0.17800
C1389       C  0.08761550  0.26716419  0.37520938    -0.27500
C1390       C  0.10688812  0.24626545  0.38241186     0.06100
C1391       C  0.10492847  0.21978536  0.36999064     0.25700
C1392       C  0.08394448  0.21430325  0.35068254    -0.12000
C1393       C  0.06440934  0.23504826  0.34352102    -0.25900
C1394       C  0.06644750  0.26166128  0.35592324     0.36500
C1395       C  0.12901122  0.25223892  0.40286877     0.06100
F1396       F  0.12355678  0.19935805  0.37622853    -0.19700
H1397       H  0.08295557  0.19365882  0.34135168     0.15900
F1398       F  0.04750155  0.28195962  0.35026391    -0.23400
H1399       H  0.08872952  0.28762248  0.38491916     0.17700
C1400       C  0.14727866  0.27479779  0.39862944     0.25700
C1401       C  0.16717640  0.28139445  0.41877569    -0.12000
C1402       C  0.16939198  0.26536250  0.44322520    -0.26000
C1403       C  0.15176203  0.24216813  0.44707648     0.36600
C1404       C  0.13162448  0.23572536  0.42698799    -0.27600
F1405       F  0.14586101  0.29037595  0.37496799    -0.19700
H1406       H  0.18074447  0.29924565  0.41542917     0.15900
F1407       F  0.15291207  0.22681857  0.47090405    -0.23500
H1408       H  0.11754245  0.21834313  0.43058763     0.17800
C1409       C  0.90504952  0.24120880  0.17210446    -0.27500
C1410       C  0.91438530  0.26453838  0.15690095     0.06100
C1411       C  0.93500149  0.28194937  0.16846364     0.25700
C1412       C  0.94797018  0.27442102  0.19353595    -0.12000
C1413       C  0.94066358  0.24937973  0.20713542    -0.25900
C1414       C  0.91813351  0.23355029  0.19694741     0.36500
C1415       C  0.90495320  0.26832591  0.12775491     0.06100
F1416       F  0.94441488  0.30466812  0.15426128    -0.19700
H1417       H  0.96539945  0.28683017  0.20092762     0.15900
F1418       F  0.90994822  0.20971849  0.21006983    -0.23400
H1419       H  0.88869267  0.22793204  0.16380467     0.17700
C1420       C  0.90752165  0.24609412  0.10869017     0.25700
C1421       C  0.89737939  0.24872533  0.08158277    -0.12000
C1422       C  0.88447715  0.27355737  0.07281452    -0.26000
C1423       C  0.88300423  0.29634829  0.09153959     0.36600
C1424       C  0.89326419  0.29367728  0.11879399    -0.27600
F1425       F  0.91967032  0.22163741  0.11639075    -0.19700
H1426       H  0.89890942  0.23091968  0.06764019     0.15900
F1427       F  0.87012090  0.32053736  0.08419776    -0.23500
H1428       H  0.89117114  0.31103393  0.13321094     0.17800
C1429       C  0.86487237  0.28638123  0.61189878    -0.27500
C1430       C  0.87986857  0.26138937  0.60850007     0.06100
C1431       C  0.87415614  0.24432660  0.58517081     0.25700
C1432       C  0.85377882  0.25217183  0.56582892    -0.12000
C1433       C  0.83906483  0.27735046  0.56907568    -0.25900
C1434       C  0.84481995  0.29444063  0.59233558     0.36500
C1435       C  0.90101271  0.25297970  0.62953422     0.06100
F1436       F  0.88884841  0.22048420  0.58059969    -0.19700
H1437       H  0.85004731  0.23891038  0.54784791     0.15900
F1438       F  0.83070811  0.31871186  0.59645987    -0.23400
H1439       H  0.86850090  0.29960028  0.62992859     0.17700
C1440       C  0.92149103  0.27190395  0.63902373     0.25700
C1441       C  0.94159071  0.26332092  0.65842340    -0.12000
C1442       C  0.94180346  0.23570468  0.66849021    -0.26000
C1443       C  0.92083238  0.21705289  0.65950430     0.36600
C1444       C  0.90070380  0.22569466  0.64034141    -0.27600
F1445       F  0.92273673  0.29836173  0.62877107    -0.19700
H1446       H  0.95753841  0.27804032  0.66488585     0.15900
F1447       F  0.91957104  0.19044207  0.66939104    -0.23500
H1448       H  0.88472416  0.21097215  0.63395667     0.17800
C1449       C  0.10730701  0.26244782  0.65711360    -0.27500
C1450       C  0.11549513  0.24405868  0.63575112     0.06100
C1451       C  0.10155282  0.21834113  0.63281384     0.25700
C1452       C  0.07927371  0.21164946  0.65031626    -0.12000
C1453       C  0.07025665  0.23045694  0.67104460    -0.25900
C1454       C  0.08485505  0.25587386  0.67455592     0.36500
C1455       C  0.13676710  0.25265987  0.61503493     0.06100
F1456       F  0.10850316  0.20023168  0.61209280    -0.19700
H1457       H  0.06873523  0.19182282  0.64719687     0.15900
F1458       F  0.07717042  0.27473378  0.69432557    -0.23400
H1459       H  0.11800524  0.28223457  0.65994958     0.17700
C1460       C  0.13444682  0.27856593  0.60138065     0.25700
C1461       C  0.15228916  0.28518296  0.57939591    -0.12000
C1462       C  0.17283033  0.26618719  0.57042545    -0.26000
C1463       C  0.17595941  0.24072618  0.58490162     0.36600
C1464       C  0.15807607  0.23414100  0.60704327    -0.27600
F1465       F  0.11399624  0.29695498  0.60825793    -0.19700
H1466       H  0.14958806  0.30515757  0.56904719     0.15900
F1467       F  0.19565577  0.22183043  0.57726513    -0.23500
H1468       H  0.16048060  0.21423842  0.61760612     0.17800
C1469       C  0.89837522  0.09850477  0.72979192    -0.27500
C1470       C  0.88109861  0.10590695  0.75240980     0.06100
C1471       C  0.88963036  0.12769756  0.77027149     0.25700
C1472       C  0.91533922  0.14062481  0.76645016    -0.12000
C1473       C  0.93299902  0.13279794  0.74437090    -0.25900
C1474       C  0.92398991  0.11208402  0.72553408     0.36500
C1475       C  0.85561433  0.08945895  0.75904952     0.06100
F1476       F  0.87313678  0.13656933  0.79158241    -0.19700
H1477       H  0.92132714  0.15710519  0.78080307     0.15900
F1478       F  0.94027746  0.10425582  0.70370119    -0.23400
H1479       H  0.89251084  0.08158153  0.71593820     0.17700
C1480       C  0.83633210  0.08110454  0.73840961     0.25700
C1481       C  0.81325770  0.06440446  0.74559738    -0.12000
C1482       C  0.80920449  0.05594265  0.77339192    -0.26000
C1483       C  0.82790763  0.06536492  0.79402756     0.36600
C1484       C  0.85095522  0.08137489  0.78680871    -0.27600
F1485       F  0.83981625  0.08896113  0.71140055    -0.19700
H1486       H  0.79917121  0.05733883  0.72938250     0.15900
F1487       F  0.82426230  0.05863601  0.82136636    -0.23500
H1488       H  0.86562195  0.08689655  0.80309510     0.17800
C1489       C  0.11302330  0.10785539  0.72169110    -0.27500
C1490       C  0.11541804  0.08933617  0.74432511     0.06100
C1491       C  0.09202163  0.08468049  0.76152063     0.25700
C1492       C  0.06778015  0.10040885  0.75792918    -0.12000
C1493       C  0.06608125  0.12048345  0.73662605    -0.25900
C1494       C  0.08846023  0.12319417  0.71769258     0.36500
C1495       C  0.14295375  0.07761517  0.75223216     0.06100
F1496       F  0.09299982  0.06564010  0.78254790    -0.19700
H1497       H  0.05065912  0.09750776  0.77231887     0.15900
F1498       F  0.08754900  0.14228479  0.69671847    -0.23400
H1499       H  0.13065705  0.11175053  0.70821343     0.17700
C1500       C  0.16032315  0.06373448  0.73295564     0.25700
C1501       C  0.18541443  0.05158782  0.74193411    -0.12000
C1502       C  0.19330149  0.05302874  0.77018890    -0.26000
C1503       C  0.17665924  0.06825802  0.78894444     0.36600
C1504       C  0.15194450  0.08054557  0.77997462    -0.27600
F1505       F  0.15234073  0.06052345  0.70595030    -0.19700
H1506       H  0.19774354  0.03962369  0.72724004     0.15900
F1507       F  0.18387947  0.07054367  0.81626568    -0.23500
H1508       H  0.13945925  0.09194876  0.79494963     0.17800
C1509       C  0.93715976  0.27948333  0.83962848    -0.27500
C1510       C  0.92242142  0.26010311  0.85610486     0.06100
C1511       C  0.91830689  0.23279325  0.84581786     0.25700
C1512       C  0.93162818  0.22412565  0.82144919    -0.12000
C1513       C  0.94846596  0.24272383  0.80631649    -0.25900
C1514       C  0.94998124  0.27091544  0.81470064     0.36500
C1515       C  0.91287617  0.26743065  0.88468959     0.06100
F1516       F  0.90224784  0.21411232  0.85994334    -0.19700
H1517       H  0.92976925  0.20245328  0.81500360     0.15900
F1518       F  0.96583831  0.28948272  0.80023069    -0.23400
H1519       H  0.94012957  0.30076260  0.84686213     0.17700
C1520       C  0.91839650  0.24916372  0.90704381     0.25700
C1521       C  0.90592483  0.25345219  0.93295967    -0.12000
C1522       C  0.88826356  0.27641164  0.93748387    -0.26000
C1523       C  0.88526990  0.29648474  0.91610570     0.36600
C1524       C  0.89737729  0.29184568  0.88980532    -0.27600
F1525       F  0.93530823  0.22664321  0.90362766    -0.19700
H1526       H  0.90930828  0.23812878  0.94928406     0.15900
F1527       F  0.86912630  0.31949161  0.91990251    -0.23500
H1528       H  0.89347110  0.30658392  0.87308004     0.17800
C1529       C  0.22320874  0.62556622  0.10556702    -0.27500
C1530       C  0.24934286  0.62870267  0.11824270     0.06100
C1531       C  0.26687907  0.65067839  0.10954298     0.25700
C1532       C  0.25856712  0.66867420  0.08802474    -0.12000
C1533       C  0.23266431  0.66507225  0.07468457    -0.25900
C1534       C  0.21486120  0.64342927  0.08409376     0.36500
C1535       C  0.25888242  0.60754401  0.13875859     0.06100
F1536       F  0.29209230  0.65466889  0.12178948    -0.19700
H1537       H  0.27264812  0.68519703  0.08155019     0.15900
F1538       F  0.18957174  0.63889614  0.07220748    -0.23400
H1539       H  0.20952802  0.60855100  0.11165953     0.17700
C1540       C  0.24196825  0.59940013  0.16137754     0.25700
C1541       C  0.25028147  0.57756359  0.17897043    -0.12000
C1542       C  0.27554562  0.56332379  0.17431249    -0.26000
C1543       C  0.29266032  0.57198362  0.15189234     0.36600
C1544       C  0.28432385  0.59379908  0.13442737    -0.27600
F1545       F  0.21742470  0.61258099  0.16648392    -0.19700
H1546       H  0.23674980  0.57166774  0.19612240     0.15900
F1547       F  0.31730914  0.55917932  0.14637125    -0.23500
H1548       H  0.29747209  0.59942410  0.11687521     0.17800
C1549       C  0.26777545  0.63217147  0.92220836    -0.27500
C1550       C  0.24801954  0.62546970  0.90146471     0.06100
C1551       C  0.22149430  0.63793964  0.90289159     0.25700
C1552       C  0.21482621  0.65606526  0.92481604    -0.12000
C1553       C  0.23448472  0.66264310  0.94558688    -0.25900
C1554       C  0.26122536  0.65076289  0.94392144     0.36500
C1555       C  0.25492116  0.60489072  0.87905065     0.06100
F1556       F  0.20207355  0.63296531  0.88288772    -0.19700
H1557       H  0.19415370  0.66518585  0.92545883     0.15900
F1558       F  0.28058850  0.65610876  0.96388238    -0.23400
H1559       H  0.28817547  0.62246627  0.92200612     0.17700
C1560       C  0.28078682  0.60587191  0.86514550     0.25700
C1561       C  0.28804174  0.58501598  0.84597776    -0.12000
C1562       C  0.26948590  0.56312517  0.83968453    -0.26000
C1563       C  0.24305523  0.56286360  0.85237401     0.36600
C1564       C  0.23602611  0.58336960  0.87210807    -0.27600
F1565       F  0.29908981  0.62700918  0.87003681    -0.19700
H1566       H  0.30839029  0.58583973  0.83612819     0.15900
F1567       F  0.22469787  0.54189487  0.84699072    -0.23500
H1568       H  0.21610450  0.58182517  0.88268448     0.17800
C1569       C  0.10017945  0.77023177  0.84239343    -0.27500
C1570       C  0.09586639  0.74413429  0.85520848     0.06100
C1571       C  0.07744753  0.72493423  0.84262275     0.25700
C1572       C  0.06193239  0.73281680  0.81905210    -0.12000
C1573       C  0.06438038  0.75997273  0.80798005    -0.25900
C1574       C  0.08455996  0.77818613  0.81916341     0.36500
C1575       C  0.10754875  0.73928784  0.88354642     0.06100
F1576       F  0.07256038  0.69960806  0.85449506    -0.19700
H1577       H  0.04643623  0.71848367  0.81086328     0.15900
F1578       F  0.08815525  0.80429952  0.80853663    -0.23400
H1579       H  0.11461890  0.78517099  0.85141553     0.17700
C1580       C  0.12279281  0.71510509  0.89050557     0.25700
C1581       C  0.13419907  0.71218079  0.91738595    -0.12000
C1582       C  0.13087063  0.73346464  0.93747681    -0.26000
C1583       C  0.11506472  0.75720373  0.93056575     0.36600
C1584       C  0.10347381  0.75992142  0.90404072    -0.27600
F1585       F  0.12786796  0.69509700  0.87101868    -0.19700
H1586       H  0.14677821  0.69396298  0.92204768     0.15900
F1587       F  0.11109022  0.77806656  0.94940887    -0.23500
H1588       H  0.09143594  0.77851274  0.89935372     0.17800
C1589       C  0.07426119  0.73720241  0.16955847    -0.27500
C1590       C  0.08850154  0.75718623  0.15335352     0.06100
C1591       C  0.08963751  0.78501526  0.16296817     0.25700
C1592       C  0.07546575  0.79289941  0.18729184    -0.12000
C1593       C  0.05997387  0.77325975  0.20278105    -0.25900
C1594       C  0.06011443  0.74508042  0.19402742     0.36500
C1595       C  0.10073114  0.74949014  0.12573960     0.06100
F1596       F  0.10408018  0.80475515  0.14854047    -0.19700
H1597       H  0.07586345  0.81469782  0.19354454     0.15900
F1598       F  0.04486311  0.72553024  0.20783851    -0.23400
H1599       H  0.07294235  0.71568526  0.16253300     0.17700
C1600       C  0.11904705  0.72666787  0.12279646     0.25700
C1601       C  0.13145257  0.72085662  0.09685275    -0.12000
C1602       C  0.12604115  0.73781527  0.07345677    -0.26000
C1603       C  0.10678934  0.75984931  0.07617044     0.36600
C1604       C  0.09424987  0.76548636  0.10197822    -0.27600
F1605       F  0.12616919  0.71097400  0.14530004    -0.19700
H1606       H  0.14649092  0.70401480  0.09543923     0.15900
F1607       F  0.10036036  0.77620781  0.05392106    -0.23500
H1608       H  0.07966284  0.78271013  0.10351067     0.17800
C1609       C  0.23482397  0.83412466  0.91238321    -0.27500
C1610       C  0.25907723  0.84880180  0.91983598     0.06100
C1611       C  0.27692629  0.83739673  0.94013075     0.25700
C1612       C  0.26941125  0.81270649  0.95413594    -0.12000
C1613       C  0.24396938  0.79933902  0.94818084    -0.25900
C1614       C  0.22726646  0.80964856  0.92642230     0.36500
C1615       C  0.26340965  0.87741912  0.90873164     0.06100
F1616       F  0.30026456  0.85137066  0.94809654    -0.19700
H1617       H  0.28230086  0.80536462  0.97119070     0.15900
F1618       F  0.20281358  0.79689472  0.91986582    -0.23400
H1619       H  0.22096859  0.84247708  0.89659607     0.17700
C1620       C  0.28695779  0.88450599  0.89273034     0.25700
C1621       C  0.28906159  0.91116441  0.88060947    -0.12000
C1622       C  0.26766880  0.93103307  0.88418778    -0.26000
C1623       C  0.24481318  0.92421399  0.90135391     0.36600
C1624       C  0.24276942  0.89768450  0.91339659    -0.27600
F1625       F  0.30707078  0.86522306  0.88755519    -0.19700
H1626       H  0.30672991  0.91575203  0.86724158     0.15900
F1627       F  0.22413597  0.94300701  0.90610339    -0.23500
H1628       H  0.22467700  0.89270369  0.92604817     0.17800
C1629       C  0.25893178  0.34705368  0.90476955    -0.27500
C1630       C  0.24416502  0.37203788  0.90027047     0.06100
C1631       C  0.22123215  0.37827539  0.91734760     0.25700
C1632       C  0.21362805  0.36016873  0.93888771    -0.12000
C1633       C  0.22861556  0.33531149  0.94396515    -0.25900
C1634       C  0.25122413  0.32872592  0.92631943     0.36500
C1635       C  0.25367099  0.39247972  0.87904235     0.06100
F1636       F  0.20685442  0.40250367  0.91397067    -0.19700
H1637       H  0.19607705  0.36598529  0.95189918     0.15900
F1638       F  0.26597096  0.30477140  0.92985400    -0.23400
H1639       H  0.27660460  0.34185576  0.89164756     0.17700
C1640       C  0.28075000  0.40353901  0.88032307     0.25700
C1641       C  0.28905788  0.42450482  0.86177945    -0.12000
C1642       C  0.27059989  0.43493800  0.84145374    -0.26000
C1643       C  0.24355079  0.42333056  0.83981659     0.36600
C1644       C  0.23523779  0.40239590  0.85855326    -0.27600
F1645       F  0.29882118  0.39491157  0.90033477    -0.19700
H1646       H  0.30998911  0.43284280  0.86367108     0.15900
F1647       F  0.22490120  0.43245267  0.82056588    -0.23500
H1648       H  0.21425280  0.39406425  0.85726379     0.17800
C1649       C  0.26333536  0.36850883  0.09212086    -0.27500
C1650       C  0.24638314  0.37273686  0.11573224     0.06100
C1651       C  0.22063438  0.35867667  0.11739967     0.25700
C1652       C  0.21192991  0.34120052  0.09561077    -0.12000
C1653       C  0.22884646  0.33710543  0.07195489    -0.25900
C1654       C  0.25474736  0.35081504  0.07045503     0.36500
C1655       C  0.25507683  0.39303446  0.13759481     0.06100
F1656       F  0.20401716  0.36163340  0.14018721    -0.19700
H1657       H  0.19195423  0.33070167  0.09727491     0.15900
F1658       F  0.27112916  0.34820364  0.04746873    -0.23400
H1659       H  0.28296300  0.37957598  0.09008842     0.17700
C1660       C  0.28208695  0.39225765  0.14901027     0.25700
C1661       C  0.29098354  0.41326241  0.16734723    -0.12000
C1662       C  0.27300408  0.43517286  0.17501303    -0.26000
C1663       C  0.24560574  0.43531066  0.16449194     0.36600
C1664       C  0.23685376  0.41450820  0.14586882    -0.27600
F1665       F  0.29985565  0.37115727  0.14244566    -0.19700
H1666       H  0.31202080  0.41243477  0.17554292     0.15900
F1667       F  0.22771805  0.45632133  0.17103557    -0.23500
H1668       H  0.21607036  0.41574526  0.13711719     0.17800
C1669       C  0.09177940  0.24119355  0.17169918    -0.27500
C1670       C  0.08476179  0.26598519  0.15771031     0.06100
C1671       C  0.06585477  0.28475686  0.17004980     0.25700
C1672       C  0.05255957  0.27756056  0.19509079    -0.12000
C1673       C  0.05791260  0.25158159  0.20764574    -0.25900
C1674       C  0.07829664  0.23388834  0.19635536     0.36500
C1675       C  0.09478596  0.26987822  0.12890044     0.06100
F1676       F  0.05834428  0.30861704  0.15665543    -0.19700
H1677       H  0.03635501  0.29105994  0.20328862     0.15900
F1678       F  0.08356410  0.20856738  0.20807655    -0.23400
H1679       H  0.10651202  0.22664129  0.16254700     0.17700
C1680       C  0.11030020  0.29353241  0.12102458     0.25700
C1681       C  0.12224358  0.29481262  0.09439841    -0.12000
C1682       C  0.11907213  0.27237848  0.07564457    -0.26000
C1683       C  0.10233278  0.24946200  0.08309796     0.36600
C1684       C  0.09018614  0.24836264  0.10946268    -0.27600
F1685       F  0.11545018  0.31437544  0.13959811    -0.19700
H1686       H  0.13540305  0.31247943  0.08908950     0.15900
F1687       F  0.09840248  0.22776978  0.06518507    -0.23500
H1688       H  0.07787457  0.23018768  0.11511423     0.17800
C1689       C  0.09133134  0.24197386  0.90997042    -0.27500
C1690       C  0.09713816  0.26065002  0.88806701     0.06100
C1691       C  0.11257516  0.28502278  0.89379710     0.25700
C1692       C  0.12372002  0.28940672  0.92047355    -0.12000
C1693       C  0.11972787  0.26955804  0.94183373    -0.25900
C1694       C  0.10251243  0.24623394  0.93653444     0.36500
C1695       C  0.08780931  0.25373677  0.85932139     0.06100
F1696       F  0.11840070  0.30368074  0.87323040    -0.19700
H1697       H  0.13684772  0.30755585  0.92390820     0.15900
F1698       F  0.09714016  0.22701382  0.95672901    -0.23400
H1699       H  0.07864797  0.22355410  0.90628422     0.17700
C1700       C  0.09249603  0.22684464  0.84831333     0.25700
C1701       C  0.08064541  0.21902618  0.82289023    -0.12000
C1702       C  0.06388326  0.23779165  0.80780633    -0.26000
C1703       C  0.06125080  0.26551931  0.81760786     0.36600
C1704       C  0.07301423  0.27329117  0.84324560    -0.27600
F1705       F  0.10786008  0.20776972  0.86258160    -0.19700
H1706       H  0.08345730  0.19770257  0.81570936     0.15900
F1707       F  0.04557336  0.28453662  0.80363067    -0.23500
H1708       H  0.06927492  0.29417604  0.85121927     0.17800
C1709       C  0.22625206  0.09558480  0.91249590    -0.27500
C1710       C  0.24659921  0.11675686  0.91238211     0.06100
C1711       C  0.27240185  0.11148595  0.89937133     0.25700
C1712       C  0.27721906  0.08588893  0.88588950    -0.12000
C1713       C  0.25633409  0.06522747  0.88491132    -0.25900
C1714       C  0.23089615  0.07020063  0.89879532     0.36500
C1715       C  0.24039932  0.14429674  0.92544528     0.06100
F1716       F  0.29241929  0.13157801  0.89846341    -0.19700
H1717       H  0.29684363  0.08274687  0.87510478     0.15900
F1718       F  0.21033139  0.05063054  0.89893349    -0.23400
H1719       H  0.20649513  0.09883812  0.92299938     0.17700
C1720       C  0.21515821  0.15816753  0.91975387     0.25700
C1721       C  0.20847416  0.18299458  0.93361651    -0.12000
C1722       C  0.22679369  0.19467221  0.95332359    -0.26000
C1723       C  0.25252188  0.18140695  0.95827799     0.36600
C1724       C  0.25917117  0.15643597  0.94445754    -0.27600
F1725       F  0.19675995  0.14757341  0.90097474    -0.19700
H1726       H  0.18850927  0.19274255  0.92947526     0.15900
F1727       F  0.27035558  0.19139274  0.97791055    -0.23500
H1728       H  0.27854657  0.14596037  0.94948489     0.17800
C1729       C  0.65059815  0.90893184  0.26756190    -0.27500
C1730       C  0.63061310  0.89891652  0.24860877     0.06100
C1731       C  0.62980430  0.91008676  0.22152444     0.25700
C1732       C  0.64842134  0.93120434  0.21371549    -0.12000
C1733       C  0.66822917  0.94171087  0.23274769    -0.25900
C1734       C  0.66939831  0.92998702  0.25973553     0.36500
C1735       C  0.60933873  0.87838012  0.25775350     0.06100
F1736       F  0.61018196  0.90144699  0.20299906    -0.19700
H1737       H  0.64686331  0.93975617  0.19283376     0.15900
F1738       F  0.68868431  0.93871714  0.27855976    -0.23400
H1739       H  0.65150849  0.90049078  0.28853593     0.17700
C1740       C  0.60576962  0.85268121  0.24384870     0.25700
C1741       C  0.58431308  0.83437807  0.25182374    -0.12000
C1742       C  0.56626244  0.84132301  0.27391681    -0.26000
C1743       C  0.57014857  0.86701104  0.28793808     0.36600
C1744       C  0.59151565  0.88521801  0.27992429    -0.27600
F1745       F  0.62324723  0.84517929  0.22282673    -0.19700
H1746       H  0.58198554  0.81463583  0.24092283     0.15900
F1747       F  0.55270984  0.87504925  0.30880279    -0.23500
H1748       H  0.59375573  0.90508300  0.29063684     0.17800
C1749       C  0.62475687  0.09373585  0.22599742    -0.27500
C1750       C  0.63319674  0.11391745  0.24546271     0.06100
C1751       C  0.65999501  0.11236035  0.25712902     0.25700
C1752       C  0.67782287  0.09042459  0.24984454    -0.12000
C1753       C  0.66914915  0.06966683  0.23090460    -0.25900
C1754       C  0.64244822  0.07175201  0.21875323     0.36500
C1755       C  0.61273980  0.13452374  0.25564340     0.06100
F1756       F  0.66877934  0.13193271  0.27571582    -0.19700
H1757       H  0.69836594  0.08959453  0.25918335     0.15900
F1758       F  0.63288318  0.05201013  0.20073049    -0.23400
H1759       H  0.60395583  0.09440990  0.21720877     0.17700
C1760       C  0.59893226  0.15262047  0.23716727     0.25700
C1761       C  0.57719902  0.16958498  0.24681018    -0.12000
C1762       C  0.56867803  0.16839355  0.27490894    -0.26000
C1763       C  0.58327493  0.15080075  0.29349286     0.36600
C1764       C  0.60509764  0.13415591  0.28386047    -0.27600
F1765       F  0.60627333  0.15359287  0.20979369    -0.19700
H1766       H  0.56653408  0.18305381  0.23211091     0.15900
F1767       F  0.57638645  0.14936379  0.32097017    -0.23500
H1768       H  0.61544021  0.12014882  0.29830781     0.17800
C1769       C  0.79176671  0.16191232  0.09483460    -0.27500
C1770       C  0.76545656  0.14954378  0.09095967     0.06100
C1771       C  0.74573360  0.16320031  0.07401518     0.25700
C1772       C  0.75280423  0.18797139  0.06014845    -0.12000
C1773       C  0.77971731  0.19922518  0.06258412    -0.25900
C1774       C  0.79896475  0.18641606  0.08063263     0.36500
C1775       C  0.75908850  0.12203998  0.10387193     0.06100
F1776       F  0.72030141  0.15162735  0.06933377    -0.19700
H1777       H  0.73785576  0.19728695  0.04597918     0.15900
F1778       F  0.82498701  0.19718318  0.08389133    -0.23400
H1779       H  0.80702463  0.15217864  0.10836560     0.17700
C1780       C  0.77780344  0.09950077  0.10140396     0.25700
C1781       C  0.77190279  0.07387019  0.11420640    -0.12000
C1782       C  0.74718146  0.07007401  0.12958602    -0.26000
C1783       C  0.72819561  0.09252601  0.13150721     0.36600
C1784       C  0.73420598  0.11817720  0.11881954    -0.27600
F1785       F  0.80172072  0.10215827  0.08642272    -0.19700
H1786       H  0.78692613  0.05706694  0.11235407     0.15900
F1787       F  0.70436165  0.09024433  0.14666285    -0.23500
H1788       H  0.71965370  0.13532199  0.12127598     0.17800
C1789       C  0.72966070  0.89812351  0.10389239    -0.27500
C1790       C  0.74383038  0.87678926  0.11829054     0.06100
C1791       C  0.75514121  0.88253651  0.14470845     0.25700
C1792       C  0.75432737  0.90961171  0.15539613    -0.12000
C1793       C  0.74186688  0.93140050  0.14025771    -0.25900
C1794       C  0.72839736  0.92526666  0.11493393     0.36500
C1795       C  0.75076235  0.85026262  0.10398099     0.06100
F1796       F  0.76779355  0.86210792  0.15977349    -0.19700
H1797       H  0.76361610  0.91362156  0.17557255     0.15900
F1798       F  0.71543851  0.94570823  0.10019293    -0.23400
H1799       H  0.72091338  0.89415356  0.08342768     0.17700
C1800       C  0.73049663  0.83421822  0.09000425     0.25700
C1801       C  0.73860432  0.81141605  0.07346047    -0.12000
C1802       C  0.76697678  0.80470377  0.07044663    -0.26000
C1803       C  0.78694960  0.81980008  0.08576232     0.36600
C1804       C  0.77886572  0.84231281  0.10228372    -0.27600
F1805       F  0.70308416  0.84103266  0.09176684    -0.19700
H1806       H  0.72290971  0.80003995  0.06179375     0.15900
F1807       F  0.81448721  0.81343798  0.08395880    -0.23500
H1808       H  0.79486814  0.85446675  0.11269551     0.17800
C1809       C  0.83993087  0.91425334  0.24217264    -0.27500
C1810       C  0.85382260  0.92234623  0.26665994     0.06100
C1811       C  0.84157932  0.94256077  0.28418707     0.25700
C1812       C  0.81672375  0.95573297  0.27614918    -0.12000
C1813       C  0.80415632  0.94900179  0.25053740    -0.25900
C1814       C  0.81548902  0.92759873  0.23403522     0.36500
C1815       C  0.88221391  0.91138875  0.27170465     0.06100
F1816       F  0.85481147  0.95126718  0.30768255    -0.19700
H1817       H  0.80861584  0.97274451  0.28871604     0.15900
F1818       F  0.80396761  0.92100593  0.20902149    -0.23400
H1819       H  0.84888663  0.89853772  0.22853496     0.17700
C1820       C  0.88922879  0.89738752  0.29650496     0.25700
C1821       C  0.91513093  0.88404137  0.29889821    -0.12000
C1822       C  0.93425521  0.88438471  0.27654729    -0.26000
C1823       C  0.92776095  0.89998633  0.25249395     0.36600
C1824       C  0.90203525  0.91328378  0.25019966    -0.27600
F1825       F  0.87043385  0.89505206  0.31759229    -0.19700
H1826       H  0.91956693  0.87214708  0.31762728     0.15900
F1827       F  0.94592395  0.90178686  0.23078840    -0.23500
H1828       H  0.89719423  0.92446483  0.23112629     0.17800
C1829       C  0.84205148  0.07667111  0.27444513    -0.27500
C1830       C  0.85270981  0.09720532  0.25643365     0.06100
C1831       C  0.83829407  0.10365938  0.23175327     0.25700
C1832       C  0.81481836  0.08818666  0.22411410    -0.12000
C1833       C  0.80521981  0.06626828  0.24111991    -0.25900
C1834       C  0.81842260  0.06124138  0.26689880     0.36500
C1835       C  0.88046793  0.10945150  0.26158760     0.06100
F1836       F  0.84769876  0.12413770  0.21447503    -0.19700
H1837       H  0.80485636  0.09249631  0.20428272     0.15900
F1838       F  0.81017295  0.03973397  0.28351129    -0.23400
H1839       H  0.85305803  0.07137928  0.29345905     0.17700
C1840       C  0.88611750  0.12497478  0.28580574     0.25700
C1841       C  0.91235494  0.13726190  0.28945327    -0.12000
C1842       C  0.93326667  0.13423549  0.26898799    -0.26000
C1843       C  0.92779376  0.11766412  0.24531432     0.36600
C1844       C  0.90162197  0.10544380  0.24173765    -0.27600
F1845       F  0.86592707  0.12930613  0.30522144    -0.19700
H1846       H  0.91589705  0.15013746  0.30774002     0.15900
F1847       F  0.94756770  0.11351132  0.22543310    -0.23500
H1848       H  0.89770734  0.09299303  0.22322630     0.17800
C1849       C  0.41109042  0.88054453  0.28200714    -0.27500
C1850       C  0.39285530  0.87289766  0.26044990     0.06100
C1851       C  0.39776678  0.84785590  0.24572030     0.25700
C1852       C  0.42067581  0.83103899  0.25242446    -0.12000
C1853       C  0.43898070  0.83875287  0.27402203    -0.25900
C1854       C  0.43379829  0.86374605  0.28886317     0.36500
C1855       C  0.37030652  0.89241502  0.25221122     0.06100
F1856       F  0.38027534  0.83948896  0.22505968    -0.19700
H1857       H  0.42390571  0.81181043  0.24086868     0.15900
F1858       F  0.45095272  0.87245455  0.30967540    -0.23400
H1859       H  0.40819504  0.90006518  0.29316623     0.17700
C1860       C  0.35320744  0.90537049  0.27234140     0.25700
C1861       C  0.33470642  0.92659537  0.26453147    -0.12000
C1862       C  0.33277698  0.93521031  0.23651567    -0.26000
C1863       C  0.34892628  0.92108077  0.21623738     0.36600
C1864       C  0.36753171  0.90013891  0.22413181    -0.27600
F1865       F  0.35461167  0.89772221  0.29961054    -0.19700
H1866       H  0.32228816  0.93664174  0.28055635     0.15900
F1867       F  0.34745564  0.92785488  0.18874658    -0.23500
H1868       H  0.38064206  0.89070879  0.20828019     0.17800
C1869       C  0.34904747  0.10165046  0.27136040    -0.27500
C1870       C  0.37510216  0.10294510  0.25796800     0.06100
C1871       C  0.38158756  0.08321703  0.23729541     0.25700
C1872       C  0.36213066  0.06293836  0.22969105    -0.12000
C1873       C  0.33577586  0.06170526  0.24261475    -0.25900
C1874       C  0.32941620  0.08126273  0.26373079     0.36500
C1875       C  0.39609532  0.12401504  0.26626920     0.06100
F1876       F  0.40710124  0.08308236  0.22497254    -0.19700
H1877       H  0.36791679  0.04794845  0.21373254     0.15900
F1878       F  0.30419890  0.08106356  0.27663556    -0.23400
H1879       H  0.34385766  0.11661675  0.28754761     0.17700
C1880       C  0.40778694  0.14239014  0.24652285     0.25700
C1881       C  0.42938880  0.16056400  0.25416412    -0.12000
C1882       C  0.43978632  0.16065397  0.28160618    -0.26000
C1883       C  0.42747861  0.14247094  0.30147148     0.36600
C1884       C  0.40581979  0.12452660  0.29378291    -0.27600
F1885       F  0.39827615  0.14271579  0.21983689    -0.19700
H1886       H  0.43811871  0.17438701  0.23849833     0.15900
F1887       F  0.43648975  0.14155564  0.32833011    -0.23500
H1888       H  0.39713369  0.11037189  0.30919450     0.17800
C1889       C  0.27061727  0.84094339  0.07768123    -0.27500
C1890       C  0.25069677  0.85396275  0.09491832     0.06100
C1891       C  0.22509680  0.84026184  0.09964220     0.25700
C1892       C  0.21872498  0.81548022  0.08558020    -0.12000
C1893       C  0.23782323  0.80346986  0.06686101    -0.25900
C1894       C  0.26433985  0.81579762  0.06385235     0.36500
C1895       C  0.25551544  0.88256618  0.10637478     0.06100
F1896       F  0.20579420  0.85130915  0.11723030    -0.19700
H1897       H  0.19824831  0.80626441  0.08840970     0.15900
F1898       F  0.28322548  0.80497923  0.04569047    -0.23400
H1899       H  0.29045057  0.85103639  0.07363137     0.17700
C1900       C  0.28042086  0.88984916  0.12016672     0.25700
C1901       C  0.28328521  0.91631769  0.13259969    -0.12000
C1902       C  0.26129244  0.93576042  0.13176518    -0.26000
C1903       C  0.23703552  0.92893916  0.11679648     0.36600
C1904       C  0.23438951  0.90280535  0.10401283    -0.27600
F1905       F  0.30128382  0.87090778  0.12306163    -0.19700
H1906       H  0.30206362  0.92099683  0.14427375     0.15900
F1907       F  0.21560202  0.94737653  0.11496835    -0.23500
H1908       H  0.21540234  0.89813509  0.09268261     0.17800
C1909       C  0.26460585  0.16704055  0.08478492    -0.27500
C1910       C  0.24444860  0.15242083  0.10043582     0.06100
C1911       C  0.21756713  0.16400627  0.10298848     0.25700
C1912       C  0.21025229  0.18776825  0.08770660    -0.12000
C1913       C  0.22975015  0.20111174  0.07032260    -0.25900
C1914       C  0.25740927  0.19132176  0.06995981     0.36500
C1915       C  0.25079589  0.12432529  0.11237305     0.06100
F1916       F  0.19806429  0.15191488  0.11967492    -0.19700
H1917       H  0.18893756  0.19522101  0.08868018     0.15900
F1918       F  0.27684156  0.20373305  0.05344948    -0.23400
H1919       H  0.28553682  0.15879571  0.08273963     0.17700
C1920       C  0.23209598  0.10189288  0.10854817     0.25700
C1921       C  0.23725989  0.07591685  0.12074301    -0.12000
C1922       C  0.26141163  0.07128149  0.13662966    -0.26000
C1923       C  0.28098672  0.09320314  0.13922234     0.36600
C1924       C  0.27562014  0.11946966  0.12721956    -0.27600
F1925       F  0.20882491  0.10490070  0.09272818    -0.19700
H1926       H  0.22200384  0.05939597  0.11797831     0.15900
F1927       F  0.30462849  0.08976273  0.15439527    -0.23500
H1928       H  0.29052397  0.13626527  0.13019202     0.17800
C1929       C  0.09915301  0.91168921  0.25182877    -0.27500
C1930       C  0.12099135  0.90371047  0.26959027     0.06100
C1931       C  0.11542434  0.88622215  0.29247244     0.25700
C1932       C  0.08860389  0.87540961  0.29633701    -0.12000
C1933       C  0.06726231  0.88179102  0.27728438    -0.25900
C1934       C  0.07250794  0.90073879  0.25549991     0.36500
C1935       C  0.14948418  0.91323082  0.26318790     0.06100
F1936       F  0.13623271  0.87816031  0.30987975    -0.19700
H1937       H  0.08500047  0.86058224  0.31308443     0.15900
F1938       F  0.05210725  0.90789569  0.23721432    -0.23400
H1939       H  0.10299861  0.92580207  0.23452727     0.17700
C1940       C  0.16042255  0.90921924  0.23624808     0.25700
C1941       C  0.18475729  0.92294285  0.22826487    -0.12000
C1942       C  0.19863567  0.94056543  0.24709617    -0.26000
C1943       C  0.18920801  0.94247400  0.27484859     0.36600
C1944       C  0.16462954  0.92887063  0.28280254    -0.27600
F1945       F  0.14669678  0.89327180  0.21720477    -0.19700
H1946       H  0.19187201  0.92116237  0.20684613     0.15900
F1947       F  0.20199350  0.95978757  0.29333836    -0.23500
H1948       H  0.15641672  0.93214147  0.30363276     0.17800
C1949       C  0.10860937  0.11858711  0.23768272    -0.27500
C1950       C  0.12042023  0.10664309  0.26168577     0.06100
C1951       C  0.10628294  0.10949155  0.28731057     0.25700
C1952       C  0.08073498  0.12372597  0.28866003    -0.12000
C1953       C  0.06875541  0.13557559  0.26455948    -0.25900
C1954       C  0.08320583  0.13287000  0.23896776     0.36500
C1955       C  0.14709671  0.09084414  0.25929997     0.06100
F1956       F  0.11752750  0.09921763  0.31119192    -0.19700
H1957       H  0.07056904  0.12587146  0.30875730     0.15900
F1958       F  0.07297975  0.14404150  0.21501989    -0.23400
H1959       H  0.11898759  0.11656899  0.21767058     0.17700
C1960       C  0.14935542  0.06323509  0.26937189     0.25700
C1961       C  0.17334609  0.04742504  0.26388901    -0.12000
C1962       C  0.19522776  0.05864786  0.24791996    -0.26000
C1963       C  0.19345120  0.08642452  0.23861313     0.36600
C1964       C  0.16970320  0.10243282  0.24447937    -0.27600
F1965       F  0.12752401  0.05075173  0.28248230    -0.19700
H1966       H  0.17400289  0.02571919  0.27042909     0.15900
F1967       F  0.21422465  0.09763506  0.22289586    -0.23500
H1968       H  0.16851072  0.12362997  0.23654569     0.17800
loop_ 
_geom_bond_atom_site_label_1 
_geom_bond_atom_site_label_2 
_geom_bond_distance 
_geom_bond_site_symmetry_2 
_ccdc_geom_bond_type 
Fe1          O17   2.050   1_545  S
Fe1           O7   2.051   1_545  S
Fe1          O14   2.063       .  S
Fe1           O6   2.052       .  S
Fe1          O12   1.959       .  S
Fe2           O5   2.043   1_545  S
Fe2           O9   2.080   1_545  S
Fe2          O13   2.071       .  S
Fe2          O18   2.056       .  S
Fe2          O12   1.968       .  S
Fe3          O21   2.091   1_545  S
Fe3           O8   2.072       .  S
Fe3          O15   2.059   1_545  S
Fe3           O4   2.093       .  S
Fe3          O12   1.977       .  S
O4           C11   1.273       .  A
O5           C19   1.266       .  A
O6           C11   1.267       .  A
O7           C10   1.268       .  A
O8           C20   1.270       .  A
O9           C22   1.269       .  A
C10          O15   1.268       .  A
C10        C1942   1.464       .  S
C11        C1962   1.473       .  S
O13          C16   1.269       .  A
O14          C16   1.269       .  A
C16        C1922   1.486       .  S
O17          C22   1.265       .  A
O18          C20   1.268       .  A
C19          O21   1.275       .  A
C19        C1862   1.487       .  S
C20        C1873   1.483       .  S
C22        C1902   1.481       .  S
Fe23         O39   2.076       .  S
Fe23         O29   2.050       .  S
Fe23         O36   2.044   1_545  S
Fe23         O28   2.053   1_545  S
Fe23         O34   1.945       .  S
Fe24         O27   2.058       .  S
Fe24         O31   2.054       .  S
Fe24         O35   2.082   1_545  S
Fe24         O40   2.048   1_545  S
Fe24         O34   1.959       .  S
Fe25         O43   2.064       .  S
Fe25         O30   2.093   1_545  S
Fe25         O37   2.087       .  S
Fe25         O26   2.068   1_545  S
Fe25         O34   1.956       .  S
O26          C33   1.268       .  A
O27          C41   1.267       .  A
O28          C33   1.266       .  A
O29          C32   1.271       .  A
O30          C42   1.277       .  A
O31          C44   1.265       .  A
C32          O37   1.275       .  A
C32        C1833   1.473       .  S
C33        C1813   1.466       .  S
O35          C38   1.270       .  A
O36          C38   1.267       .  A
C38        C1793   1.473       .  S
O39          C44   1.269       .  A
O40          C42   1.270       .  A
C41          O43   1.269       .  A
C41        C1753   1.479       .  S
C42        C1733   1.486       .  S
C44        C1782   1.484       .  S
Fe45         O61   2.067   1_554  S
Fe45         O51   2.046   1_554  S
Fe45         O58   2.041       .  S
Fe45         O50   2.062       .  S
Fe45         O56   1.958       .  S
Fe46         O49   2.052   1_554  S
Fe46         O53   2.065   1_554  S
Fe46         O57   2.062       .  S
Fe46         O62   2.052       .  S
Fe46         O56   1.968       .  S
Fe47         O65   2.082   1_554  S
Fe47         O52   2.094       .  S
Fe47         O59   2.088   1_554  S
Fe47         O48   2.080       .  S
Fe47         O56   1.973       .  S
O48          C55   1.273       .  A
O49          C63   1.267       .  A
O50          C55   1.270       .  A
O51          C54   1.266       .  A
O52          C64   1.275       .  A
O53          C66   1.269       .  A
C54          O59   1.273       .  A
C54        C1722   1.480       .  S
C55        C1913   1.480       .  S
O57          C60   1.266       .  A
O58          C60   1.264       .  A
C60        C1682   1.466       .  S
O61          C66   1.269       .  A
O62          C64   1.267       .  A
C63          O65   1.273       .  A
C63        C1633   1.488       .  S
C64        C1653   1.479       .  S
C66        C1693   1.484       .  S
Fe67         O83   2.066       .  S
Fe67         O73   2.046       .  S
Fe67         O80   2.047   1_554  S
Fe67         O72   2.054   1_554  S
Fe67         O78   1.969       .  S
Fe68         O71   2.057       .  S
Fe68         O75   2.076       .  S
Fe68         O79   2.081   1_554  S
Fe68         O84   2.048   1_554  S
Fe68         O78   1.979       .  S
Fe69         O87   2.077       .  S
Fe69         O74   2.094   1_554  S
Fe69         O81   2.089       .  S
Fe69         O70   2.078   1_554  S
Fe69         O78   1.988       .  S
O70          C77   1.270       .  A
O71          C85   1.267       .  A
O72          C77   1.267       .  A
O73          C76   1.267       .  A
O74          C86   1.275       .  A
O75          C88   1.269       .  A
C76          O81   1.274       .  A
C76        C1893   1.479       .  S
C77        C1613   1.475       .  S
O79          C82   1.270       .  A
O80          C82   1.265       .  A
C82        C1582   1.481       .  S
O83          C88   1.267       .  A
O84          C86   1.267       .  A
C85          O87   1.272       .  A
C85        C1533   1.490       .  S
C86        C1553   1.482       .  S
C88        C1602   1.485       .  S
Fe89        O105   2.071       .  S
Fe89         O95   2.047       .  S
Fe89        O102   2.037   1_455  S
Fe89         O94   2.063   1_455  S
Fe89        O100   1.955       .  S
Fe90         O93   2.069       .  S
Fe90         O97   2.057       .  S
Fe90        O101   2.086   1_455  S
Fe90        O106   2.043   1_455  S
Fe90        O100   1.969       .  S
Fe91        O109   2.059       .  S
Fe91         O96   2.088   1_455  S
Fe91        O103   2.086       .  S
Fe91         O92   2.065   1_455  S
Fe91        O100   1.976       .  S
O92          C99   1.270       .  A
O93         C107   1.273       .  A
O94          C99   1.270       .  A
O95          C98   1.267       .  A
O96         C108   1.272       .  A
O97         C110   1.264       .  A
C98         O103   1.272       .  A
C98        C1702   1.483       .  S
C99        C1513   1.472       .  S
O101        C104   1.273       .  A
O102        C104   1.266       .  A
C104       C1473   1.478       .  S
O105        C110   1.268       .  A
O106        C108   1.264       .  A
C107        O109   1.271       .  A
C107       C1453   1.483       .  S
C108       C1442   1.483       .  S
C110       C1493   1.479       .  S
Fe111       O127   2.068       .  S
Fe111       O117   2.050       .  S
Fe111       O124   2.053   1_655  S
Fe111       O116   2.052   1_655  S
Fe111       O122   1.951   1_655  S
Fe112       O115   2.072   1_455  S
Fe112       O119   2.049   1_455  S
Fe112       O123   2.092       .  S
Fe112       O128   2.028       .  S
Fe112       O122   1.959       .  S
Fe113       O131   2.056   1_455  S
Fe113       O118   2.088       .  S
Fe113       O125   2.086   1_455  S
Fe113       O114   2.060       .  S
Fe113       O122   1.971       .  S
O114        C121   1.268       .  A
O115        C129   1.271       .  A
O116        C121   1.267       .  A
O117        C120   1.268       .  A
O118        C130   1.274       .  A
O119        C132   1.264       .  A
C120        O125   1.273       .  A
C120       C1413   1.475       .  S
C121       C1673   1.460       .  S
O123        C126   1.274       .  A
O124        C126   1.267       .  A
C126       C1953   1.494       .  S
O127        C132   1.268       .  A
O128        C130   1.264       .  A
C129        O131   1.269       .  A
C129       C1382   1.484       .  S
C130       C1393   1.475       .  S
C132       C1842   1.478       .  S
Fe133       O149   2.048       .  S
Fe133       O139   2.058       .  S
Fe133       O146   2.053   1_455  S
Fe133       O138   2.046   1_455  S
Fe133       O144   1.971       .  S
Fe134       O137   2.047   1_655  S
Fe134       O141   2.058   1_655  S
Fe134       O145   2.065       .  S
Fe134       O150   2.043       .  S
Fe134       O144   1.984   1_655  S
Fe135       O153   2.093       .  S
Fe135       O140   2.091   1_455  S
Fe135       O147   2.087       .  S
Fe135       O136   2.084   1_455  S
Fe135       O144   1.986       .  S
O136        C143   1.273       .  A
O137        C151   1.265       .  A
O138        C143   1.267       .  A
O139        C142   1.268       .  A
O140        C152   1.274       .  A
O141        C154   1.267       .  A
C142        O147   1.273       .  A
C142       C1593   1.488       .  S
C143       C1353   1.477       .  S
O145        C148   1.266       .  A
O146        C148   1.265       .  A
C148       C1822   1.481       .  S
O149        C154   1.267       .  A
O150        C152   1.267       .  A
C151        O153   1.274       .  A
C151       C1313   1.493       .  S
C152       C1333   1.488       .  S
C154       C1933   1.467       .  S
Fe155       O171   2.055   1_554  S
Fe155       O161   2.045   1_554  S
Fe155       O168   2.050       .  S
Fe155       O160   2.050       .  S
Fe155       O166   1.967       .  S
Fe156       O159   2.064   1_554  S
Fe156       O163   2.062   1_554  S
Fe156       O167   2.076       .  S
Fe156       O172   2.042       .  S
Fe156       O166   1.977       .  S
Fe157       O175   2.072   1_554  S
Fe157       O162   2.077       .  S
Fe157       O169   2.078   1_554  S
Fe157       O158   2.067       .  S
Fe157       O166   1.984       .  S
O158        C165   1.268       .  A
O159        C173   1.271       .  A
O160        C165   1.267       .  A
O161        C164   1.266       .  A
O162        C174   1.271       .  A
O163        C176   1.266       .  A
C164        O169   1.271       .  A
C164       C1302   1.471       .  S
C165       C1802   1.472       .  S
O167        C170   1.270       .  A
O168        C170   1.267       .  A
C170       C1362   1.481       .  S
O171        C176   1.266       .  A
O172        C174   1.265       .  A
C173        O175   1.271       .  A
C173       C1233   1.486       .  S
C174       C1262   1.483       .  S
C176       C1282   1.482       .  S
Fe177       O193   2.047   1_565  S
Fe177       O183   2.053   1_565  S
Fe177       O190   2.060       .  S
Fe177       O182   2.039       .  S
Fe177       O188   1.966       .  S
Fe178       O181   2.046       .  S
Fe178       O185   2.086       .  S
Fe178       O189   2.065   1_545  S
Fe178       O194   2.062   1_545  S
Fe178       O188   1.975   1_545  S
Fe179       O197   2.088       .  S
Fe179       O184   2.068   1_545  S
Fe179       O191   2.072       .  S
Fe179       O180   2.083   1_545  S
Fe179       O188   1.985   1_545  S
O180        C187   1.272       .  A
O181        C195   1.266       .  A
O182        C187   1.266       .  A
O183        C186   1.268       .  A
O184        C196   1.271       .  A
O185        C198   1.273       .  A
C186        O191   1.270       .  A
C186       C1502   1.475       .  S
C187       C1222   1.474       .  S
O189        C192   1.265       .  A
O190        C192   1.265       .  A
C192       C1622   1.483       .  S
O193        C198   1.267       .  A
O194        C196   1.270       .  A
C195        O197   1.273       .  A
C195       C1182   1.488       .  S
C196       C1193   1.485       .  S
C198       C1713   1.483       .  S
Fe199       O215   2.051   1_455  S
Fe199       O205   2.049   1_455  S
Fe199       O212   2.053       .  S
Fe199       O204   2.050       .  S
Fe199       O210   1.969       .  S
Fe200       O203   2.046   1_455  S
Fe200       O207   2.068   1_455  S
Fe200       O211   2.058       .  S
Fe200       O216   2.056       .  S
Fe200       O210   1.979       .  S
Fe201       O219   2.094   1_455  S
Fe201       O206   2.071       .  S
Fe201       O213   2.076   1_455  S
Fe201       O202   2.086       .  S
Fe201       O210   1.987       .  S
O202        C209   1.272       .  A
O203        C217   1.265       .  A
O204        C209   1.267       .  A
O205        C208   1.267       .  A
O206        C218   1.271       .  A
O207        C220   1.268       .  A
C208        O213   1.271       .  A
C208       C1273   1.466       .  S
C209       C1573   1.481       .  S
O211        C214   1.266       .  A
O212        C214   1.266       .  A
C214       C1213   1.477       .  S
O215        C220   1.266       .  A
O216        C218   1.268       .  A
C217        O219   1.274       .  A
C217       C1113   1.481       .  S
C218       C1133   1.486       .  S
C220       C1153   1.480       .  S
Fe221       O237   2.049       .  S
Fe221       O227   2.049       .  S
Fe221       O234   2.055   1_554  S
Fe221       O226   2.059   1_554  S
Fe221       O232   1.966       .  S
Fe222       O225   2.047       .  S
Fe222       O229   2.066       .  S
Fe222       O233   2.068   1_554  S
Fe222       O238   2.045   1_554  S
Fe222       O232   1.981       .  S
Fe223       O241   2.088       .  S
Fe223       O228   2.077   1_554  S
Fe223       O235   2.070       .  S
Fe223       O224   2.090   1_554  S
Fe223       O232   1.982       .  S
O224        C231   1.275       .  A
O225        C239   1.266       .  A
O226        C231   1.270       .  A
O227        C230   1.265       .  A
O228        C240   1.271       .  A
O229        C242   1.268       .  A
C230        O235   1.269       .  A
C230       C1773   1.472       .  S
C231       C1093   1.486       .  S
O233        C236   1.266       .  A
O234        C236   1.266       .  A
C236       C1522   1.481       .  S
O237        C242   1.267       .  A
O238        C240   1.267       .  A
C239        O241   1.273       .  A
C239       C1053   1.489       .  S
C240       C1082   1.484       .  S
C242       C1422   1.479       .  S
Fe243       O259   2.055       .  S
Fe243       O249   2.047       .  S
Fe243       O256   2.055   1_565  S
Fe243       O248   2.045   1_565  S
Fe243       O254   1.952       .  S
Fe244       O247   2.077   1_545  S
Fe244       O251   2.055   1_545  S
Fe244       O255   2.094       .  S
Fe244       O260   2.032       .  S
Fe244       O254   1.955   1_545  S
Fe245       O263   2.083   1_545  S
Fe245       O250   2.089       .  S
Fe245       O257   2.089   1_545  S
Fe245       O246   2.081       .  S
Fe245       O254   1.968   1_545  S
O246        C253   1.273       .  A
O247        C261   1.275       .  A
O248        C253   1.266       .  A
O249        C252   1.266       .  A
O250        C262   1.271       .  A
O251        C264   1.263       .  A
C252        O257   1.273       .  A
C252       C1162   1.475       .  S
C253       C1482   1.476       .  S
O255        C258   1.277       .  A
O256        C258   1.270       .  A
C258       C1102   1.488       .  S
O259        C264   1.263       .  A
O260        C262   1.262       .  A
C261        O263   1.277       .  A
C261       C1013   1.494       .  S
C262       C1033   1.485       .  S
C264       C1293   1.477       .  S
Fe265       O281   2.073       .  S
Fe265       O271   2.047       .  S
Fe265       O278   2.036       .  S
Fe265       O270   2.057       .  S
Fe265       O276   1.953       .  S
Fe266       O269   2.057       .  S
Fe266       O273   2.044       .  S
Fe266       O277   2.083       .  S
Fe266       O282   2.034       .  S
Fe266       O276   1.971       .  S
Fe267       O285   2.067       .  S
Fe267       O272   2.096       .  S
Fe267       O279   2.095       .  S
Fe267       O268   2.065       .  S
Fe267       O276   1.970       .  S
O268        C275   1.268       .  A
O269        C283   1.268       .  A
O270        C275   1.267       .  A
O271        C274   1.269       .  A
O272        C284   1.276       .  A
O273        C286   1.263       .  A
C274        O279   1.276       .  A
C274        C982   1.482       .  S
C275        C993   1.468       .  S
O277        C280   1.269       .  A
O278        C280   1.265       .  A
C280        C962   1.467       .  S
O281        C286   1.269       .  A
O282        C284   1.264       .  A
C283        O285   1.270       .  A
C283       C1762   1.481       .  S
C284       C1882   1.487       .  S
C286        C942   1.479       .  S
Fe287       O303   2.062       .  S
Fe287       O293   2.050       .  S
Fe287       O300   2.048       .  S
Fe287       O292   2.057       .  S
Fe287       O298   1.968       .  S
Fe288       O291   2.064       .  S
Fe288       O295   2.075       .  S
Fe288       O299   2.074       .  S
Fe288       O304   2.062       .  S
Fe288       O298   1.974       .  S
Fe289       O307   2.069       .  S
Fe289       O294   2.071       .  S
Fe289       O301   2.067       .  S
Fe289       O290   2.070       .  S
Fe289       O298   1.981       .  S
O290        C297   1.271       .  A
O291        C305   1.271       .  A
O292        C297   1.269       .  A
O293        C296   1.266       .  A
O294        C306   1.268       .  A
O295        C308   1.269       .  A
C296        O301   1.267       .  A
C296        C902   1.473       .  S
C297        C913   1.471       .  S
O299        C302   1.270       .  A
O300        C302   1.266       .  A
C302       C1002   1.481       .  S
O303        C308   1.267       .  A
O304        C306   1.267       .  A
C305        O307   1.272       .  A
C305       C1542   1.487       .  S
C306       C1662   1.481       .  S
C308        C873   1.487       .  S
Fe309       O325   2.065       .  S
Fe309       O315   2.042       .  S
Fe309       O322   2.043       .  S
Fe309       O314   2.056       .  S
Fe309       O320   1.948       .  S
Fe310       O313   2.059       .  S
Fe310       O317   2.064       .  S
Fe310       O321   2.078       .  S
Fe310       O326   2.040       .  S
Fe310       O320   1.957       .  S
Fe311       O329   2.063       .  S
Fe311       O316   2.086       .  S
Fe311       O323   2.079       .  S
Fe311       O312   2.071       .  S
Fe311       O320   1.968       .  S
O312        C319   1.272       .  A
O313        C327   1.270       .  A
O314        C319   1.270       .  A
O315        C318   1.266       .  A
O316        C328   1.272       .  A
O317        C330   1.267       .  A
C318        O323   1.271       .  A
C318        C853   1.474       .  S
C319        C953   1.474       .  S
O321        C324   1.270       .  A
O322        C324   1.266       .  A
C324        C922   1.469       .  S
O325        C330   1.268       .  A
O326        C328   1.265       .  A
C327        O329   1.270       .  A
C327       C1462   1.480       .  S
C328       C1402   1.468       .  S
C330        C833   1.484       .  S
Fe331       O347   2.050       .  S
Fe331       O337   2.040       .  S
Fe331       O344   2.043       .  S
Fe331       O336   2.047       .  S
Fe331       O342   1.970       .  S
Fe332       O335   2.047       .  S
Fe332       O339   2.063       .  S
Fe332       O343   2.065       .  S
Fe332       O348   2.043       .  S
Fe332       O342   1.980       .  S
Fe333       O351   2.088       .  S
Fe333       O338   2.090       .  S
Fe333       O345   2.093       .  S
Fe333       O334   2.076       .  S
Fe333       O342   1.987       .  S
O334        C341   1.270       .  A
O335        C349   1.265       .  A
O336        C341   1.266       .  A
O337        C340   1.265       .  A
O338        C350   1.274       .  A
O339        C352   1.268       .  A
C340        O345   1.275       .  A
C340        C793   1.483       .  S
C341        C822   1.477       .  S
O343        C346   1.266       .  A
O344        C346   1.263       .  A
C346        C773   1.474       .  S
O347        C352   1.266       .  A
O348        C350   1.267       .  A
C349        O351   1.273       .  A
C349       C1322   1.492       .  S
C350       C1142   1.484       .  S
C352        C893   1.477       .  S
Fe353       O369   2.048       .  S
Fe353       O359   2.048       .  S
Fe353       O366   2.046       .  S
Fe353       O358   2.046       .  S
Fe353       O364   1.969       .  S
Fe354       O357   2.064       .  S
Fe354       O361   2.077       .  S
Fe354       O365   2.081       .  S
Fe354       O370   2.054       .  S
Fe354       O364   1.981       .  S
Fe355       O373   2.069       .  S
Fe355       O360   2.087       .  S
Fe355       O367   2.087       .  S
Fe355       O356   2.071       .  S
Fe355       O364   1.990       .  S
O356        C363   1.270       .  A
O357        C371   1.270       .  A
O358        C363   1.266       .  A
O359        C362   1.266       .  A
O360        C372   1.273       .  A
O361        C374   1.270       .  A
C362        O367   1.273       .  A
C362        C842   1.482       .  S
C363        C782   1.470       .  S
O365        C368   1.269       .  A
O366        C368   1.265       .  A
C368        C762   1.485       .  S
O369        C374   1.266       .  A
O370        C372   1.268       .  A
C371        O373   1.270       .  A
C371       C1642   1.488       .  S
C372       C1562   1.480       .  S
C374        C733   1.481       .  S
Fe375       O391   2.061       .  S
Fe375       O381   2.041       .  S
Fe375       O388   2.034       .  S
Fe375       O380   2.055       .  S
Fe375       O386   1.959       .  S
Fe376       O379   2.054       .  S
Fe376       O383   2.069       .  S
Fe376       O387   2.084       .  S
Fe376       O392   2.048       .  S
Fe376       O386   1.978       .  S
Fe377       O395   2.076       .  S
Fe377       O382   2.089       .  S
Fe377       O389   2.093       .  S
Fe377       O378   2.072       .  S
Fe377       O386   1.982       .  S
O378        C385   1.270       .  A
O379        C393   1.269       .  A
O380        C385   1.268       .  A
O381        C384   1.266       .  A
O382        C394   1.273       .  A
O383        C396   1.266       .  A
C384        O389   1.273       .  A
C384        C882   1.480       .  S
C385        C722   1.470       .  S
O387        C390   1.272       .  A
O388        C390   1.264       .  A
C390        C693   1.485       .  S
O391        C396   1.266       .  A
O392        C394   1.265       .  A
C393        O395   1.274       .  A
C393       C1853   1.483       .  S
C394       C1742   1.484       .  S
C396        C802   1.481       .  S
Fe397       O413   2.043       .  S
Fe397       O403   2.048       .  S
Fe397       O410   2.048       .  S
Fe397       O402   2.038       .  S
Fe397       O408   1.968       .  S
Fe398       O401   2.061       .  S
Fe398       O405   2.076       .  S
Fe398       O409   2.079       .  S
Fe398       O414   2.057       .  S
Fe398       O408   1.981       .  S
Fe399       O417   2.073       .  S
Fe399       O404   2.068       .  S
Fe399       O411   2.069       .  S
Fe399       O400   2.078       .  S
Fe399       O408   1.988       .  S
O400        C407   1.270       .  A
O401        C415   1.270       .  A
O402        C407   1.264       .  A
O403        C406   1.267       .  A
O404        C416   1.270       .  A
O405        C418   1.268       .  A
C406        O411   1.270       .  A
C406        C662   1.470       .  S
C407        C673   1.476       .  S
O409        C412   1.271       .  A
O410        C412   1.266       .  A
C412        C713   1.483       .  S
O413        C418   1.263       .  A
O414        C416   1.268       .  A
C415        O417   1.271       .  A
C415       C1062   1.488       .  S
C416       C1253   1.485       .  S
C418        C973   1.480       .  S
Fe419       O435   2.044       .  S
Fe419       O425   2.047       .  S
Fe419       O432   2.059       .  S
Fe419       O424   2.038       .  S
Fe419       O430   1.971       .  S
Fe420       O423   2.046       .  S
Fe420       O427   2.066       .  S
Fe420       O431   2.065       .  S
Fe420       O436   2.047       .  S
Fe420       O430   1.979       .  S
Fe421       O439   2.093       .  S
Fe421       O426   2.080       .  S
Fe421       O433   2.083       .  S
Fe421       O422   2.083       .  S
Fe421       O430   1.990       .  S
O422        C429   1.271       .  A
O423        C437   1.266       .  A
O424        C429   1.266       .  A
O425        C428   1.268       .  A
O426        C438   1.271       .  A
O427        C440   1.265       .  A
C428        O433   1.273       .  A
C428        C633   1.477       .  S
C429        C702   1.478       .  S
O431        C434   1.268       .  A
O432        C434   1.268       .  A
C434        C682   1.477       .  S
O435        C440   1.263       .  A
O436        C438   1.266       .  A
C437        O439   1.274       .  A
C437       C1122   1.480       .  S
C438       C1342   1.485       .  S
C440        C613   1.475       .  S
Fe441       O457   2.038       .  S
Fe441       O447   2.051       .  S
Fe441       O454   2.055       .  S
Fe441       O446   2.032       .  S
Fe441       O452   1.968       .  S
Fe442       O445   2.064       .  S
Fe442       O449   2.066       .  S
Fe442       O453   2.078       .  S
Fe442       O458   2.048       .  S
Fe442       O452   1.980       .  S
Fe443       O461   2.076       .  S
Fe443       O448   2.064       .  S
Fe443       O455   2.068       .  S
Fe443       O444   2.081       .  S
Fe443       O452   1.985       .  S
O444        C451   1.271       .  A
O445        C459   1.271       .  A
O446        C451   1.264       .  A
O447        C450   1.267       .  A
O448        C460   1.268       .  A
O449        C462   1.266       .  A
C450        O455   1.268       .  A
C450        C622   1.472       .  S
C451        C593   1.469       .  S
O453        C456   1.271       .  A
O454        C456   1.267       .  A
C456        C553   1.485       .  S
O457        C462   1.263       .  A
O458        C460   1.264       .  A
C459        O461   1.273       .  A
C459       C1242   1.489       .  S
C460       C1073   1.481       .  S
C462        C582   1.476       .  S
Fe463       O479   2.049       .  S
Fe463       O469   2.050       .  S
Fe463       O476   2.055       .  S
Fe463       O468   2.051       .  S
Fe463       O474   1.970       .  S
Fe464       O467   2.047       .  S
Fe464       O471   2.069       .  S
Fe464       O475   2.064       .  S
Fe464       O480   2.049       .  S
Fe464       O474   1.978       .  S
Fe465       O483   2.094       .  S
Fe465       O470   2.075       .  S
Fe465       O477   2.064       .  S
Fe465       O466   2.088       .  S
Fe465       O474   1.983       .  S
O466        C473   1.272       .  A
O467        C481   1.266       .  A
O468        C473   1.267       .  A
O469        C472   1.268       .  A
O470        C482   1.272       .  A
O471        C484   1.267       .  A
C472        O477   1.269       .  A
C472        C573   1.462       .  S
C473        C753   1.483       .  S
O475        C478   1.267       .  A
O476        C478   1.267       .  A
C478        C813   1.471       .  S
O479        C484   1.264       .  A
O480        C482   1.266       .  A
C481        O483   1.274       .  A
C481       C1022   1.493       .  S
C482       C1202   1.485       .  S
C484        C642   1.478       .  S
Fe485       O501   2.045       .  S
Fe485       O491   2.050       .  S
Fe485       O498   2.049       .  S
Fe485       O490   2.048       .  S
Fe485       O496   1.970       .  S
Fe486       O489   2.049       .  S
Fe486       O493   2.066       .  S
Fe486       O497   2.075       .  S
Fe486       O502   2.042       .  S
Fe486       O496   1.983       .  S
Fe487       O505   2.090       .  S
Fe487       O492   2.081       .  S
Fe487       O499   2.076       .  S
Fe487       O488   2.084       .  S
Fe487       O496   1.986       .  S
O488        C495   1.273       .  A
O489        C503   1.268       .  A
O490        C495   1.267       .  A
O491        C494   1.266       .  A
O492        C504   1.271       .  A
O493        C506   1.266       .  A
C494        O499   1.271       .  A
C494        C742   1.477       .  S
C495        C562   1.477       .  S
O497        C500   1.269       .  A
O498        C500   1.266       .  A
C500        C542   1.482       .  S
O501        C506   1.265       .  A
O502        C504   1.265       .  A
C503        O505   1.274       .  A
C503       C1173   1.491       .  S
C504       C1042   1.477       .  S
C506        C862   1.475       .  S
Fe507       O523   2.073       .  S
Fe507       O513   2.045       .  S
Fe507       O520   2.042       .  S
Fe507       O512   2.057       .  S
Fe507       O518   1.949       .  S
Fe508       O511   2.069       .  S
Fe508       O515   2.048       .  S
Fe508       O519   2.087       .  S
Fe508       O524   2.050       .  S
Fe508       O518   1.960       .  S
Fe509       O527   2.058       .  S
Fe509       O514   2.088       .  S
Fe509       O521   2.083       .  S
Fe509       O510   2.071       .  S
Fe509       O518   1.963       .  S
O510        C517   1.271       .  A
O511        C525   1.271       .  A
O512        C517   1.268       .  A
O513        C516   1.268       .  A
O514        C526   1.274       .  A
O515        C528   1.264       .  A
C516        O521   1.272       .  A
C516        C933   1.476       .  S
C517        C533   1.468       .  S
O519        C522   1.271       .  A
O520        C522   1.265       .  A
C522        C602   1.469       .  S
O523        C528   1.269       .  A
O524        C526   1.268       .  A
C525        O527   1.270       .  A
C525       C1373   1.480       .  S
C526       C1433   1.479       .  S
C528        C653   1.482       .  S
C529        C530   1.405       .  A
C529        C534   1.403       .  A
C529        H539   1.083       .  S
C530        C535   1.482       .  S
C530        C531   1.407       .  A
C531        C532   1.394       .  A
C531        F536   1.358       .  S
C532        C533   1.401       .  A
C532        H537   1.084       .  S
C533        C534   1.405       .  A
C534        F538   1.357       .  S
C535        C540   1.406       .  A
C535        C544   1.404       .  A
C540        C541   1.393       .  A
C540        F545   1.358       .  S
C541        C542   1.405       .  A
C541        H546   1.083       .  S
C542        C543   1.410       .  A
C543        C544   1.404       .  A
C543        F547   1.357       .  S
C544        H548   1.083       .  S
C549        C550   1.405       .  A
C549        C554   1.397       .  A
C549        H559   1.084       .  S
C550        C555   1.489       .  S
C550        C551   1.408       .  A
C551        C552   1.402       .  A
C551        F556   1.357       .  S
C552        C553   1.407       .  A
C552        H557   1.084       .  S
C553        C554   1.409       .  A
C554        F558   1.358       .  S
C555        C560   1.409       .  A
C555        C564   1.406       .  A
C560        C561   1.401       .  A
C560        F565   1.357       .  S
C561        C562   1.404       .  A
C561        H566   1.084       .  S
C562        C563   1.407       .  A
C563        C564   1.398       .  A
C563        F567   1.358       .  S
C564        H568   1.083       .  S
C569        C570   1.406       .  A
C569        C574   1.394       .  A
C569        H579   1.083       .  S
C570        C575   1.479       .  S
C570        C571   1.407       .  A
C571        C572   1.396       .  A
C571        F576   1.357       .  S
C572        C573   1.402       .  A
C572        H577   1.084       .  S
C573        C574   1.402       .  A
C574        F578   1.358       .  S
C575        C580   1.406       .  A
C575        C584   1.404       .  A
C580        C581   1.391       .  A
C580        F585   1.358       .  S
C581        C582   1.405       .  A
C581        H586   1.083       .  S
C582        C583   1.409       .  A
C583        C584   1.398       .  A
C583        F587   1.357       .  S
C584        H588   1.083       .  S
C589        C590   1.403       .  A
C589        C594   1.390       .  A
C589        H599   1.083       .  S
C590        C595   1.483       .  S
C590        C591   1.410       .  A
C591        C592   1.402       .  A
C591        F596   1.357       .  S
C592        C593   1.403       .  A
C592        H597   1.084       .  S
C593        C594   1.405       .  A
C594        F598   1.359       .  S
C595        C600   1.406       .  A
C595        C604   1.409       .  A
C600        C601   1.393       .  A
C600        F605   1.358       .  S
C601        C602   1.402       .  A
C601        H606   1.084       .  S
C602        C603   1.403       .  A
C603        C604   1.401       .  A
C603        F607   1.357       .  S
C604        H608   1.083       .  S
C609        C610   1.403       .  A
C609        C614   1.391       .  A
C609        H619   1.083       .  S
C610        C615   1.476       .  S
C610        C611   1.404       .  A
C611        C612   1.401       .  A
C611        F616   1.357       .  S
C612        C613   1.407       .  A
C612        H617   1.081       .  S
C613        C614   1.405       .  A
C614        F618   1.358       .  S
C615        C620   1.406       .  A
C615        C624   1.403       .  A
C620        C621   1.393       .  A
C620        F625   1.358       .  S
C621        C622   1.402       .  A
C621        H626   1.084       .  S
C622        C623   1.409       .  A
C623        C624   1.400       .  A
C623        F627   1.358       .  S
C624        H628   1.083       .  S
C629        C630   1.404       .  A
C629        C634   1.401       .  A
C629        H639   1.083       .  S
C630        C635   1.481       .  S
C630        C631   1.406       .  A
C631        C632   1.395       .  A
C631        F636   1.358       .  S
C632        C633   1.405       .  A
C632        H637   1.084       .  S
C633        C634   1.408       .  A
C634        F638   1.357       .  S
C635        C640   1.405       .  A
C635        C644   1.404       .  A
C640        C641   1.400       .  A
C640        F645   1.357       .  S
C641        C642   1.407       .  A
C641        H646   1.083       .  S
C642        C643   1.407       .  A
C643        C644   1.396       .  A
C643        F647   1.358       .  S
C644        H648   1.083       .  S
C649        C650   1.403       .  A
C649        C654   1.397       .  A
C649        H659   1.083       .  S
C650        C655   1.484       .  S
C650        C651   1.409       .  A
C651        C652   1.396       .  A
C651        F656   1.358       .  S
C652        C653   1.405       .  A
C652        H657   1.083       .  S
C653        C654   1.412       .  A
C654        F658   1.357       .  S
C655        C660   1.409       .  A
C655        C664   1.405       .  A
C660        C661   1.398       .  A
C660        F665   1.357       .  S
C661        C662   1.403       .  A
C661        H666   1.084       .  S
C662        C663   1.404       .  A
C663        C664   1.394       .  A
C663        F667   1.358       .  S
C664        H668   1.083       .  S
C669        C670   1.406       .  A
C669        C674   1.402       .  A
C669        H679   1.084       .  S
C670        C675   1.482       .  S
C670        C671   1.405       .  A
C671        C672   1.392       .  A
C671        F676   1.358       .  S
C672        C673   1.405       .  A
C672        H677   1.084       .  S
C673        C674   1.408       .  A
C674        F678   1.357       .  S
C675        C680   1.409       .  A
C675        C684   1.402       .  A
C680        C681   1.397       .  A
C680        F685   1.358       .  S
C681        C682   1.404       .  A
C681        H686   1.084       .  S
C682        C683   1.409       .  A
C683        C684   1.398       .  A
C683        F687   1.357       .  S
C684        H688   1.083       .  S
C689        C690   1.399       .  A
C689        C694   1.387       .  A
C689        H699   1.084       .  S
C690        C695   1.478       .  S
C690        C691   1.405       .  A
C691        C692   1.405       .  A
C691        F696   1.357       .  S
C692        C693   1.410       .  A
C692        H697   1.083       .  S
C693        C694   1.412       .  A
C694        F698   1.358       .  S
C695        C700   1.402       .  A
C695        C704   1.407       .  A
C700        C701   1.386       .  A
C700        F705   1.359       .  S
C701        C702   1.405       .  A
C701        H706   1.084       .  S
C702        C703   1.408       .  A
C703        C704   1.407       .  A
C703        F707   1.357       .  S
C704        H708   1.083       .  S
C709        C710   1.405       .  A
C709        C714   1.393       .  A
C709        H719   1.084       .  S
C710        C715   1.488       .  S
C710        C711   1.408       .  A
C711        C712   1.403       .  A
C711        F716   1.357       .  S
C712        C713   1.407       .  A
C712        H717   1.084       .  S
C713        C714   1.408       .  A
C714        F718   1.358       .  S
C715        C720   1.409       .  A
C715        C724   1.407       .  A
C720        C721   1.402       .  A
C720        F725   1.357       .  S
C721        C722   1.403       .  A
C721        H726   1.083       .  S
C722        C723   1.403       .  A
C723        C724   1.394       .  A
C723        F727   1.358       .  S
C724        H728   1.083       .  S
C729        C730   1.407       .  A
C729        C734   1.403       .  A
C729        H739   1.083       .  S
C730        C735   1.487       .  S
C730        C731   1.407       .  A
C731        C732   1.393       .  A
C731        F736   1.358       .  S
C732        C733   1.405       .  A
C732        H737   1.084       .  S
C733        C734   1.409       .  A
C734        F738   1.357       .  S
C735        C740   1.408       .  A
C735        C744   1.406       .  A
C740        C741   1.401       .  A
C740        F745   1.357       .  S
C741        C742   1.405       .  A
C741        H746   1.084       .  S
C742        C743   1.406       .  A
C743        C744   1.395       .  A
C743        F747   1.358       .  S
C744        H748   1.084       .  S
C749        C750   1.406       .  A
C749        C754   1.404       .  A
C749        H759   1.083       .  S
C750        C755   1.491       .  S
C750        C751   1.409       .  A
C751        C752   1.397       .  A
C751        F756   1.358       .  S
C752        C753   1.405       .  A
C752        H757   1.083       .  S
C753        C754   1.409       .  A
C754        F758   1.357       .  S
C755        C760   1.408       .  A
C755        C764   1.407       .  A
C760        C761   1.395       .  A
C760        F765   1.358       .  S
C761        C762   1.405       .  A
C761        H766   1.084       .  S
C762        C763   1.409       .  A
C763        C764   1.405       .  A
C763        F767   1.357       .  S
C764        H768   1.083       .  S
C769        C770   1.403       .  A
C769        C774   1.399       .  A
C769        H779   1.084       .  S
C770        C775   1.478       .  S
C770        C771   1.406       .  A
C771        C772   1.392       .  A
C771        F776   1.358       .  S
C772        C773   1.403       .  A
C772        H777   1.084       .  S
C773        C774   1.408       .  A
C774        F778   1.358       .  S
C775        C780   1.406       .  A
C775        C784   1.404       .  A
C780        C781   1.393       .  A
C780        F785   1.358       .  S
C781        C782   1.403       .  A
C781        H786   1.084       .  S
C782        C783   1.406       .  A
C783        C784   1.399       .  A
C783        F787   1.357       .  S
C784        H788   1.083       .  S
C789        C790   1.403       .  A
C789        C794   1.394       .  A
C789        H799   1.084       .  S
C790        C795   1.488       .  S
C790        C791   1.409       .  A
C791        C792   1.405       .  A
C791        F796   1.357       .  S
C792        C793   1.406       .  A
C792        H797   1.083       .  S
C793        C794   1.410       .  A
C794        F798   1.358       .  S
C795        C800   1.409       .  A
C795        C804   1.405       .  A
C800        C801   1.397       .  A
C800        F805   1.358       .  S
C801        C802   1.403       .  A
C801        H806   1.084       .  S
C802        C803   1.409       .  A
C803        C804   1.403       .  A
C803        F807   1.357       .  S
C804        H808   1.083       .  S
C809        C810   1.403       .  A
C809        C814   1.392       .  A
C809        H819   1.084       .  S
C810        C815   1.475       .  S
C810        C811   1.404       .  A
C811        C812   1.402       .  A
C811        F816   1.358       .  S
C812        C813   1.407       .  A
C812        H817   1.084       .  S
C813        C814   1.403       .  A
C814        F818   1.357       .  S
C815        C820   1.404       .  A
C815        C824   1.402       .  A
C820        C821   1.401       .  A
C820        F825   1.357       .  S
C821        C822   1.407       .  A
C821        H826   1.083       .  S
C822        C823   1.408       .  A
C823        C824   1.393       .  A
C823        F827   1.358       .  S
C824        H828   1.084       .  S
C829        C830   1.405       .  A
C829        C834   1.403       .  A
C829        H839   1.083       .  S
C830        C835   1.487       .  S
C830        C831   1.408       .  A
C831        C832   1.395       .  A
C831        F836   1.358       .  S
C832        C833   1.404       .  A
C832        H837   1.083       .  S
C833        C834   1.411       .  A
C834        F838   1.358       .  S
C835        C840   1.408       .  A
C835        C844   1.404       .  A
C840        C841   1.403       .  A
C840        F845   1.357       .  S
C841        C842   1.406       .  A
C841        H846   1.083       .  S
C842        C843   1.409       .  A
C843        C844   1.396       .  A
C843        F847   1.358       .  S
C844        H848   1.084       .  S
C849        C850   1.403       .  A
C849        C854   1.392       .  A
C849        H859   1.084       .  S
C850        C855   1.476       .  S
C850        C851   1.404       .  A
C851        C852   1.399       .  A
C851        F856   1.357       .  S
C852        C853   1.407       .  A
C852        H857   1.084       .  S
C853        C854   1.407       .  A
C854        F858   1.358       .  S
C855        C860   1.404       .  A
C855        C864   1.404       .  A
C860        C861   1.391       .  A
C860        F865   1.358       .  S
C861        C862   1.403       .  A
C861        H866   1.084       .  S
C862        C863   1.410       .  A
C863        C864   1.401       .  A
C863        F867   1.358       .  S
C864        H868   1.083       .  S
C869        C870   1.404       .  A
C869        C874   1.397       .  A
C869        H879   1.084       .  S
C870        C875   1.485       .  S
C870        C871   1.405       .  A
C871        C872   1.404       .  A
C871        F876   1.357       .  S
C872        C873   1.409       .  A
C872        H877   1.083       .  S
C873        C874   1.409       .  A
C874        F878   1.358       .  S
C875        C880   1.406       .  A
C875        C884   1.406       .  A
C880        C881   1.395       .  A
C880        F885   1.358       .  S
C881        C882   1.404       .  A
C881        H886   1.084       .  S
C882        C883   1.410       .  A
C883        C884   1.405       .  A
C883        F887   1.358       .  S
C884        H888   1.083       .  S
C889        C890   1.403       .  A
C889        C894   1.391       .  A
C889        H899   1.084       .  S
C890        C895   1.478       .  S
C890        C891   1.405       .  A
C891        C892   1.400       .  A
C891        F896   1.357       .  S
C892        C893   1.408       .  A
C892        H897   1.083       .  S
C893        C894   1.407       .  A
C894        F898   1.358       .  S
C895        C900   1.407       .  A
C895        C904   1.403       .  A
C900        C901   1.393       .  A
C900        F905   1.358       .  S
C901        C902   1.402       .  A
C901        H906   1.084       .  S
C902        C903   1.408       .  A
C903        C904   1.398       .  A
C903        F907   1.358       .  S
C904        H908   1.083       .  S
C909        C910   1.403       .  A
C909        C914   1.394       .  A
C909        H919   1.084       .  S
C910        C915   1.478       .  S
C910        C911   1.406       .  A
C911        C912   1.401       .  A
C911        F916   1.357       .  S
C912        C913   1.404       .  A
C912        H917   1.084       .  S
C913        C914   1.405       .  A
C914        F918   1.358       .  S
C915        C920   1.406       .  A
C915        C924   1.404       .  A
C920        C921   1.401       .  A
C920        F925   1.357       .  S
C921        C922   1.405       .  A
C921        H926   1.084       .  S
C922        C923   1.402       .  A
C923        C924   1.393       .  A
C923        F927   1.358       .  S
C924        H928   1.084       .  S
C929        C930   1.403       .  A
C929        C934   1.400       .  A
C929        H939   1.083       .  S
C930        C935   1.476       .  S
C930        C931   1.404       .  A
C931        C932   1.392       .  A
C931        F936   1.358       .  S
C932        C933   1.404       .  A
C932        H937   1.084       .  S
C933        C934   1.410       .  A
C934        F938   1.358       .  S
C935        C940   1.403       .  A
C935        C944   1.403       .  A
C940        C941   1.399       .  A
C940        F945   1.358       .  S
C941        C942   1.410       .  A
C941        H946   1.083       .  S
C942        C943   1.406       .  A
C943        C944   1.393       .  A
C943        F947   1.357       .  S
C944        H948   1.084       .  S
C949        C950   1.401       .  A
C949        C954   1.389       .  A
C949        H959   1.084       .  S
C950        C955   1.475       .  S
C950        C951   1.405       .  A
C951        C952   1.404       .  A
C951        F956   1.357       .  S
C952        C953   1.407       .  A
C952        H957   1.083       .  S
C953        C954   1.407       .  A
C954        F958   1.358       .  S
C955        C960   1.402       .  A
C955        C964   1.408       .  A
C960        C961   1.389       .  A
C960        F965   1.358       .  S
C961        C962   1.402       .  A
C961        H966   1.084       .  S
C962        C963   1.404       .  A
C963        C964   1.405       .  A
C963        F967   1.357       .  S
C964        H968   1.083       .  S
C969        C970   1.405       .  A
C969        C974   1.402       .  A
C969        H979   1.083       .  S
C970        C975   1.483       .  S
C970        C971   1.406       .  A
C971        C972   1.395       .  A
C971        F976   1.358       .  S
C972        C973   1.406       .  A
C972        H977   1.083       .  S
C973        C974   1.408       .  A
C974        F978   1.357       .  S
C975        C980   1.406       .  A
C975        C984   1.404       .  A
C980        C981   1.402       .  A
C980        F985   1.357       .  S
C981        C982   1.408       .  A
C981        H986   1.084       .  S
C982        C983   1.409       .  A
C983        C984   1.396       .  A
C983        F987   1.358       .  S
C984        H988   1.084       .  S
C989        C990   1.407       .  A
C989        C994   1.395       .  A
C989        H999   1.083       .  S
C990        C995   1.487       .  S
C990        C991   1.409       .  A
C991        C992   1.400       .  A
C991        F996   1.357       .  S
C992        C993   1.403       .  A
C992        H997   1.083       .  S
C993        C994   1.403       .  A
C994        F998   1.358       .  S
C995       C1000   1.408       .  A
C995       C1004   1.405       .  A
C1000      C1001   1.401       .  A
C1000      F1005   1.357       .  S
C1001      C1002   1.407       .  A
C1001      H1006   1.084       .  S
C1002      C1003   1.408       .  A
C1003      C1004   1.394       .  A
C1003      F1007   1.358       .  S
C1004      H1008   1.084       .  S
C1009      C1010   1.402       .  A
C1009      C1014   1.399       .  A
C1009      H1019   1.083       .  S
C1010      C1015   1.489       .  S
C1010      C1011   1.408       .  A
C1011      C1012   1.403       .  A
C1011      F1016   1.358       .  S
C1012      C1013   1.408       .  A
C1012      H1017   1.083       .  S
C1013      C1014   1.413       .  A
C1014      F1018   1.357       .  S
C1015      C1020   1.409       .  A
C1015      C1024   1.402       .  A
C1020      C1021   1.404       .  A
C1020      F1025   1.357       .  S
C1021      C1022   1.408       .  A
C1021      H1026   1.083       .  S
C1022      C1023   1.414       .  A
C1023      C1024   1.397       .  A
C1023      F1027   1.358       .  S
C1024      H1028   1.083       .  S
C1029      C1030   1.405       .  A
C1029      C1034   1.401       .  A
C1029      H1039   1.083       .  S
C1030      C1035   1.475       .  S
C1030      C1031   1.400       .  A
C1031      C1032   1.393       .  A
C1031      F1036   1.358       .  S
C1032      C1033   1.411       .  A
C1032      H1037   1.083       .  S
C1033      C1034   1.409       .  A
C1034      F1038   1.357       .  S
C1035      C1040   1.407       .  A
C1035      C1044   1.399       .  A
C1040      C1041   1.401       .  A
C1040      F1045   1.357       .  S
C1041      C1042   1.405       .  A
C1041      H1046   1.083       .  S
C1042      C1043   1.410       .  A
C1043      C1044   1.393       .  A
C1043      F1047   1.358       .  S
C1044      H1048   1.084       .  S
C1049      C1050   1.406       .  A
C1049      C1054   1.401       .  A
C1049      H1059   1.083       .  S
C1050      C1055   1.484       .  S
C1050      C1051   1.404       .  A
C1051      C1052   1.396       .  A
C1051      F1056   1.358       .  S
C1052      C1053   1.410       .  A
C1052      H1057   1.083       .  S
C1053      C1054   1.409       .  A
C1054      F1058   1.357       .  S
C1055      C1060   1.405       .  A
C1055      C1064   1.405       .  A
C1060      C1061   1.397       .  A
C1060      F1065   1.358       .  S
C1061      C1062   1.408       .  A
C1061      H1066   1.083       .  S
C1062      C1063   1.411       .  A
C1063      C1064   1.400       .  A
C1063      F1067   1.357       .  S
C1064      H1068   1.083       .  S
C1069      C1070   1.399       .  A
C1069      C1074   1.395       .  A
C1069      H1079   1.084       .  S
C1070      C1075   1.473       .  S
C1070      C1071   1.404       .  A
C1071      C1072   1.396       .  A
C1071      F1076   1.358       .  S
C1072      C1073   1.407       .  A
C1072      H1077   1.083       .  S
C1073      C1074   1.412       .  A
C1074      F1078   1.357       .  S
C1075      C1080   1.401       .  A
C1075      C1084   1.404       .  A
C1080      C1081   1.391       .  A
C1080      F1085   1.358       .  S
C1081      C1082   1.409       .  A
C1081      H1086   1.083       .  S
C1082      C1083   1.410       .  A
C1083      C1084   1.401       .  A
C1083      F1087   1.357       .  S
C1084      H1088   1.083       .  S
C1089      C1090   1.407       .  A
C1089      C1094   1.404       .  A
C1089      H1099   1.083       .  S
C1090      C1095   1.495       .  S
C1090      C1091   1.409       .  A
C1091      C1092   1.399       .  A
C1091      F1096   1.357       .  S
C1092      C1093   1.405       .  A
C1092      H1097   1.083       .  S
C1093      C1094   1.409       .  A
C1094      F1098   1.357       .  S
C1095      C1100   1.410       .  A
C1095      C1104   1.407       .  A
C1100      C1101   1.399       .  A
C1100      F1105   1.357       .  S
C1101      C1102   1.405       .  A
C1101      H1106   1.084       .  S
C1102      C1103   1.410       .  A
C1103      C1104   1.405       .  A
C1103      F1107   1.357       .  S
C1104      H1108   1.083       .  S
C1109      C1110   1.409       .  A
C1109      C1114   1.401       .  A
C1109      H1119   1.083       .  S
C1110      C1115   1.489       .  S
C1110      C1111   1.407       .  A
C1111      C1112   1.399       .  A
C1111      F1116   1.357       .  S
C1112      C1113   1.407       .  A
C1112      H1117   1.084       .  S
C1113      C1114   1.404       .  A
C1114      F1118   1.357       .  S
C1115      C1120   1.412       .  A
C1115      C1124   1.403       .  A
C1120      C1121   1.405       .  A
C1120      F1125   1.357       .  S
C1121      C1122   1.404       .  A
C1121      H1126   1.083       .  S
C1122      C1123   1.407       .  A
C1123      C1124   1.395       .  A
C1123      F1127   1.356       .  S
C1124      H1128   1.084       .  S
C1129      C1130   1.400       .  A
C1129      C1134   1.396       .  A
C1129      H1139   1.084       .  S
C1130      C1135   1.481       .  S
C1130      C1131   1.407       .  A
C1131      C1132   1.399       .  A
C1131      F1136   1.358       .  S
C1132      C1133   1.407       .  A
C1132      H1137   1.083       .  S
C1133      C1134   1.413       .  A
C1134      F1138   1.357       .  S
C1135      C1140   1.403       .  A
C1135      C1144   1.406       .  A
C1140      C1141   1.393       .  A
C1140      F1145   1.358       .  S
C1141      C1142   1.407       .  A
C1141      H1146   1.083       .  S
C1142      C1143   1.409       .  A
C1143      C1144   1.403       .  A
C1143      F1147   1.357       .  S
C1144      H1148   1.083       .  S
C1149      C1150   1.403       .  A
C1149      C1154   1.400       .  A
C1149      H1159   1.083       .  S
C1150      C1155   1.478       .  S
C1150      C1151   1.405       .  A
C1151      C1152   1.394       .  A
C1151      F1156   1.358       .  S
C1152      C1153   1.405       .  A
C1152      H1157   1.083       .  S
C1153      C1154   1.410       .  A
C1154      F1158   1.357       .  S
C1155      C1160   1.405       .  A
C1155      C1164   1.404       .  A
C1160      C1161   1.399       .  A
C1160      F1165   1.358       .  S
C1161      C1162   1.407       .  A
C1161      H1166   1.084       .  S
C1162      C1163   1.406       .  A
C1163      C1164   1.395       .  A
C1163      F1167   1.358       .  S
C1164      H1168   1.084       .  S
C1169      C1170   1.406       .  A
C1169      C1174   1.403       .  A
C1169      H1179   1.083       .  S
C1170      C1175   1.483       .  S
C1170      C1171   1.402       .  A
C1171      C1172   1.395       .  A
C1171      F1176   1.358       .  S
C1172      C1173   1.410       .  A
C1172      H1177   1.083       .  S
C1173      C1174   1.411       .  A
C1174      F1178   1.357       .  S
C1175      C1180   1.402       .  A
C1175      C1184   1.406       .  A
C1180      C1181   1.395       .  A
C1180      F1185   1.358       .  S
C1181      C1182   1.409       .  A
C1181      H1186   1.083       .  S
C1182      C1183   1.409       .  A
C1183      C1184   1.403       .  A
C1183      F1187   1.357       .  S
C1184      H1188   1.083       .  S
C1189      C1190   1.404       .  A
C1189      C1194   1.399       .  A
C1189      H1199   1.083       .  S
C1190      C1195   1.480       .  S
C1190      C1191   1.404       .  A
C1191      C1192   1.396       .  A
C1191      F1196   1.358       .  S
C1192      C1193   1.408       .  A
C1192      H1197   1.083       .  S
C1193      C1194   1.411       .  A
C1194      F1198   1.357       .  S
C1195      C1200   1.406       .  A
C1195      C1204   1.400       .  A
C1200      C1201   1.400       .  A
C1200      F1205   1.357       .  S
C1201      C1202   1.406       .  A
C1201      H1206   1.083       .  S
C1202      C1203   1.413       .  A
C1203      C1204   1.394       .  A
C1203      F1207   1.358       .  S
C1204      H1208   1.084       .  S
C1209      C1210   1.404       .  A
C1209      C1214   1.393       .  A
C1209      H1219   1.090       .  S
C1210      C1215   1.480       .  S
C1210      C1211   1.405       .  A
C1211      C1212   1.399       .  A
C1211      F1216   1.357       .  S
C1212      C1213   1.407       .  A
C1212      H1217   1.089       .  S
C1213      C1214   1.407       .  A
C1214      F1218   1.358       .  S
C1215      C1220   1.406       .  A
C1215      C1224   1.404       .  A
C1220      C1221   1.401       .  A
C1220      F1225   1.357       .  S
C1221      C1222   1.406       .  A
C1221      H1226   1.076       .  S
C1222      C1223   1.406       .  A
C1223      C1224   1.394       .  A
C1223      F1227   1.358       .  S
C1224      H1228   1.074       .  S
C1229      C1230   1.406       .  A
C1229      C1234   1.402       .  A
C1229      H1239   1.083       .  S
C1230      C1235   1.487       .  S
C1230      C1231   1.407       .  A
C1231      C1232   1.395       .  A
C1231      F1236   1.358       .  S
C1232      C1233   1.406       .  A
C1232      H1237   1.083       .  S
C1233      C1234   1.411       .  A
C1234      F1238   1.357       .  S
C1235      C1240   1.406       .  A
C1235      C1244   1.405       .  A
C1240      C1241   1.400       .  A
C1240      F1245   1.357       .  S
C1241      C1242   1.409       .  A
C1241      H1246   1.083       .  S
C1242      C1243   1.410       .  A
C1243      C1244   1.398       .  A
C1243      F1247   1.357       .  S
C1244      H1248   1.083       .  S
C1249      C1250   1.401       .  A
C1249      C1254   1.393       .  A
C1249      H1259   1.084       .  S
C1250      C1255   1.480       .  S
C1250      C1251   1.406       .  A
C1251      C1252   1.400       .  A
C1251      F1256   1.357       .  S
C1252      C1253   1.409       .  A
C1252      H1257   1.083       .  S
C1253      C1254   1.411       .  A
C1254      F1258   1.357       .  S
C1255      C1260   1.404       .  A
C1255      C1264   1.405       .  A
C1260      C1261   1.395       .  A
C1260      F1265   1.358       .  S
C1261      C1262   1.409       .  A
C1261      H1266   1.083       .  S
C1262      C1263   1.408       .  A
C1263      C1264   1.397       .  A
C1263      F1267   1.357       .  S
C1264      H1268   1.083       .  S
C1269      C1270   1.404       .  A
C1269      C1274   1.395       .  A
C1269      H1279   1.083       .  S
C1270      C1275   1.479       .  S
C1270      C1271   1.406       .  A
C1271      C1272   1.400       .  A
C1271      F1276   1.357       .  S
C1272      C1273   1.403       .  A
C1272      H1277   1.084       .  S
C1273      C1274   1.403       .  A
C1274      F1278   1.358       .  S
C1275      C1280   1.405       .  A
C1275      C1284   1.403       .  A
C1280      C1281   1.394       .  A
C1280      F1285   1.358       .  S
C1281      C1282   1.406       .  A
C1281      H1286   1.083       .  S
C1282      C1283   1.411       .  A
C1283      C1284   1.400       .  A
C1283      F1287   1.357       .  S
C1284      H1288   1.083       .  S
C1289      C1290   1.402       .  A
C1289      C1294   1.394       .  A
C1289      H1299   1.084       .  S
C1290      C1295   1.472       .  S
C1290      C1291   1.401       .  A
C1291      C1292   1.399       .  A
C1291      F1296   1.357       .  S
C1292      C1293   1.408       .  A
C1292      H1297   1.083       .  S
C1293      C1294   1.407       .  A
C1294      F1298   1.358       .  S
C1295      C1300   1.404       .  A
C1295      C1304   1.402       .  A
C1300      C1301   1.394       .  A
C1300      F1305   1.358       .  S
C1301      C1302   1.403       .  A
C1301      H1306   1.084       .  S
C1302      C1303   1.407       .  A
C1303      C1304   1.399       .  A
C1303      F1307   1.358       .  S
C1304      H1308   1.084       .  S
C1309      C1310   1.403       .  A
C1309      C1314   1.397       .  A
C1309      H1319   1.083       .  S
C1310      C1315   1.495       .  S
C1310      C1311   1.412       .  A
C1311      C1312   1.403       .  A
C1311      F1316   1.357       .  S
C1312      C1313   1.406       .  A
C1312      H1317   1.083       .  S
C1313      C1314   1.414       .  A
C1314      F1318   1.358       .  S
C1315      C1320   1.412       .  A
C1315      C1324   1.403       .  A
C1320      C1321   1.403       .  A
C1320      F1325   1.357       .  S
C1321      C1322   1.406       .  A
C1321      H1326   1.083       .  S
C1322      C1323   1.414       .  A
C1323      C1324   1.396       .  A
C1323      F1327   1.358       .  S
C1324      H1328   1.083       .  S
C1329      C1330   1.406       .  A
C1329      C1334   1.401       .  A
C1329      H1339   1.083       .  S
C1330      C1335   1.482       .  S
C1330      C1331   1.403       .  A
C1331      C1332   1.395       .  A
C1331      F1336   1.358       .  S
C1332      C1333   1.410       .  A
C1332      H1337   1.083       .  S
C1333      C1334   1.409       .  A
C1334      F1338   1.357       .  S
C1335      C1340   1.408       .  A
C1335      C1344   1.400       .  A
C1340      C1341   1.403       .  A
C1340      F1345   1.357       .  S
C1341      C1342   1.407       .  A
C1341      H1346   1.083       .  S
C1342      C1343   1.412       .  A
C1343      C1344   1.393       .  A
C1343      F1347   1.358       .  S
C1344      H1348   1.084       .  S
C1349      C1350   1.406       .  A
C1349      C1354   1.401       .  A
C1349      H1359   1.083       .  S
C1350      C1355   1.486       .  S
C1350      C1351   1.408       .  A
C1351      C1352   1.396       .  A
C1351      F1356   1.358       .  S
C1352      C1353   1.404       .  A
C1352      H1357   1.084       .  S
C1353      C1354   1.407       .  A
C1354      F1358   1.357       .  S
C1355      C1360   1.408       .  A
C1355      C1364   1.405       .  A
C1360      C1361   1.396       .  A
C1360      F1365   1.358       .  S
C1361      C1362   1.404       .  A
C1361      H1366   1.083       .  S
C1362      C1363   1.409       .  A
C1363      C1364   1.401       .  A
C1363      F1367   1.357       .  S
C1364      H1368   1.083       .  S
C1369      C1370   1.403       .  A
C1369      C1374   1.397       .  A
C1369      H1379   1.083       .  S
C1370      C1375   1.481       .  S
C1370      C1371   1.406       .  A
C1371      C1372   1.395       .  A
C1371      F1376   1.357       .  S
C1372      C1373   1.405       .  A
C1372      H1377   1.083       .  S
C1373      C1374   1.410       .  A
C1374      F1378   1.358       .  S
C1375      C1380   1.406       .  A
C1375      C1384   1.403       .  A
C1380      C1381   1.398       .  A
C1380      F1385   1.358       .  S
C1381      C1382   1.408       .  A
C1381      H1386   1.083       .  S
C1382      C1383   1.410       .  A
C1383      C1384   1.395       .  A
C1383      F1387   1.357       .  S
C1384      H1388   1.084       .  S
C1389      C1390   1.405       .  A
C1389      C1394   1.398       .  A
C1389      H1399   1.083       .  S
C1390      C1395   1.472       .  S
C1390      C1391   1.401       .  A
C1391      C1392   1.392       .  A
C1391      F1396   1.358       .  S
C1392      C1393   1.408       .  A
C1392      H1397   1.083       .  S
C1393      C1394   1.406       .  A
C1394      F1398   1.357       .  S
C1395      C1400   1.402       .  A
C1395      C1404   1.405       .  A
C1400      C1401   1.393       .  A
C1400      F1405   1.358       .  S
C1401      C1402   1.403       .  A
C1401      H1406   1.084       .  S
C1402      C1403   1.405       .  A
C1403      C1404   1.398       .  A
C1403      F1407   1.358       .  S
C1404      H1408   1.083       .  S
C1409      C1410   1.404       .  A
C1409      C1414   1.395       .  A
C1409      H1419   1.084       .  S
C1410      C1415   1.479       .  S
C1410      C1411   1.405       .  A
C1411      C1412   1.400       .  A
C1411      F1416   1.357       .  S
C1412      C1413   1.406       .  A
C1412      H1417   1.084       .  S
C1413      C1414   1.406       .  A
C1414      F1418   1.358       .  S
C1415      C1420   1.406       .  A
C1415      C1424   1.403       .  A
C1420      C1421   1.392       .  A
C1420      F1425   1.358       .  S
C1421      C1422   1.403       .  A
C1421      H1426   1.084       .  S
C1422      C1423   1.412       .  A
C1423      C1424   1.401       .  A
C1423      F1427   1.358       .  S
C1424      H1428   1.083       .  S
C1429      C1430   1.404       .  A
C1429      C1434   1.398       .  A
C1429      H1439   1.083       .  S
C1430      C1435   1.486       .  S
C1430      C1431   1.409       .  A
C1431      C1432   1.399       .  A
C1431      F1436   1.358       .  S
C1432      C1433   1.404       .  A
C1432      H1437   1.084       .  S
C1433      C1434   1.408       .  A
C1434      F1438   1.358       .  S
C1435      C1440   1.409       .  A
C1435      C1444   1.403       .  A
C1440      C1441   1.401       .  A
C1440      F1445   1.357       .  S
C1441      C1442   1.405       .  A
C1441      H1446   1.083       .  S
C1442      C1443   1.410       .  A
C1443      C1444   1.396       .  A
C1443      F1447   1.358       .  S
C1444      H1448   1.084       .  S
C1449      C1450   1.404       .  A
C1449      C1454   1.397       .  A
C1449      H1459   1.083       .  S
C1450      C1455   1.480       .  S
C1450      C1451   1.405       .  A
C1451      C1452   1.394       .  A
C1451      F1456   1.358       .  S
C1452      C1453   1.407       .  A
C1452      H1457   1.083       .  S
C1453      C1454   1.411       .  A
C1454      F1458   1.357       .  S
C1455      C1460   1.405       .  A
C1455      C1464   1.405       .  A
C1460      C1461   1.392       .  A
C1460      F1465   1.358       .  S
C1461      C1462   1.407       .  A
C1461      H1466   1.083       .  S
C1462      C1463   1.409       .  A
C1463      C1464   1.398       .  A
C1463      F1467   1.357       .  S
C1464      H1468   1.083       .  S
C1469      C1470   1.408       .  A
C1469      C1474   1.403       .  A
C1469      H1479   1.083       .  S
C1470      C1475   1.486       .  S
C1470      C1471   1.408       .  A
C1471      C1472   1.390       .  A
C1471      F1476   1.358       .  S
C1472      C1473   1.405       .  A
C1472      H1477   1.083       .  S
C1473      C1474   1.406       .  A
C1474      F1478   1.357       .  S
C1475      C1480   1.411       .  A
C1475      C1484   1.402       .  A
C1480      C1481   1.406       .  A
C1480      F1485   1.357       .  S
C1481      C1482   1.404       .  A
C1481      H1486   1.083       .  S
C1482      C1483   1.408       .  A
C1483      C1484   1.387       .  A
C1483      F1487   1.359       .  S
C1484      H1488   1.083       .  S
C1489      C1490   1.404       .  A
C1489      C1494   1.402       .  A
C1489      H1499   1.079       .  S
C1490      C1495   1.485       .  S
C1490      C1491   1.408       .  A
C1491      C1492   1.396       .  A
C1491      F1496   1.358       .  S
C1492      C1493   1.403       .  A
C1492      H1497   1.080       .  S
C1493      C1494   1.410       .  A
C1494      F1498   1.358       .  S
C1495      C1500   1.409       .  A
C1495      C1504   1.404       .  A
C1500      C1501   1.405       .  A
C1500      F1505   1.357       .  S
C1501      C1502   1.407       .  A
C1501      H1506   1.082       .  S
C1502      C1503   1.404       .  A
C1503      C1504   1.392       .  A
C1503      F1507   1.358       .  S
C1504      H1508   1.081       .  S
C1509      C1510   1.406       .  A
C1509      C1514   1.403       .  A
C1509      H1519   1.083       .  S
C1510      C1515   1.484       .  S
C1510      C1511   1.408       .  A
C1511      C1512   1.393       .  A
C1511      F1516   1.358       .  S
C1512      C1513   1.401       .  A
C1512      H1517   1.084       .  S
C1513      C1514   1.407       .  A
C1514      F1518   1.357       .  S
C1515      C1520   1.407       .  A
C1515      C1524   1.405       .  A
C1520      C1521   1.392       .  A
C1520      F1525   1.358       .  S
C1521      C1522   1.403       .  A
C1521      H1526   1.084       .  S
C1522      C1523   1.410       .  A
C1523      C1524   1.404       .  A
C1523      F1527   1.357       .  S
C1524      H1528   1.083       .  S
C1529      C1530   1.401       .  A
C1529      C1534   1.396       .  A
C1529      H1539   1.084       .  S
C1530      C1535   1.483       .  S
C1530      C1531   1.407       .  A
C1531      C1532   1.401       .  A
C1531      F1536   1.358       .  S
C1532      C1533   1.408       .  A
C1532      H1537   1.083       .  S
C1533      C1534   1.413       .  A
C1534      F1538   1.357       .  S
C1535      C1540   1.407       .  A
C1535      C1544   1.402       .  A
C1540      C1541   1.400       .  A
C1540      F1545   1.358       .  S
C1541      C1542   1.408       .  A
C1541      H1546   1.083       .  S
C1542      C1543   1.412       .  A
C1543      C1544   1.396       .  A
C1543      F1547   1.357       .  S
C1544      H1548   1.084       .  S
C1549      C1550   1.410       .  A
C1549      C1554   1.403       .  A
C1549      H1559   1.083       .  S
C1550      C1555   1.492       .  S
C1550      C1551   1.407       .  A
C1551      C1552   1.397       .  A
C1551      F1556   1.357       .  S
C1552      C1553   1.406       .  A
C1552      H1557   1.084       .  S
C1553      C1554   1.405       .  A
C1554      F1558   1.357       .  S
C1555      C1560   1.408       .  A
C1555      C1564   1.409       .  A
C1560      C1561   1.398       .  A
C1560      F1565   1.357       .  S
C1561      C1562   1.405       .  A
C1561      H1566   1.084       .  S
C1562      C1563   1.405       .  A
C1563      C1564   1.402       .  A
C1563      F1567   1.357       .  S
C1564      H1568   1.083       .  S
C1569      C1570   1.405       .  A
C1569      C1574   1.395       .  A
C1569      H1579   1.084       .  S
C1570      C1575   1.487       .  S
C1570      C1571   1.408       .  A
C1571      C1572   1.404       .  A
C1571      F1576   1.357       .  S
C1572      C1573   1.406       .  A
C1572      H1577   1.083       .  S
C1573      C1574   1.407       .  A
C1574      F1578   1.358       .  S
C1575      C1580   1.408       .  A
C1575      C1584   1.404       .  A
C1580      C1581   1.406       .  A
C1580      F1585   1.357       .  S
C1581      C1582   1.408       .  A
C1581      H1586   1.083       .  S
C1582      C1583   1.405       .  A
C1583      C1584   1.393       .  A
C1583      F1587   1.357       .  S
C1584      H1588   1.084       .  S
C1589      C1590   1.406       .  A
C1589      C1594   1.405       .  A
C1589      H1599   1.083       .  S
C1590      C1595   1.492       .  S
C1590      C1591   1.408       .  A
C1591      C1592   1.399       .  A
C1591      F1596   1.358       .  S
C1592      C1593   1.407       .  A
C1592      H1597   1.084       .  S
C1593      C1594   1.410       .  A
C1594      F1598   1.357       .  S
C1595      C1600   1.408       .  A
C1595      C1604   1.406       .  A
C1600      C1601   1.404       .  A
C1600      F1605   1.357       .  S
C1601      C1602   1.407       .  A
C1601      H1606   1.083       .  S
C1602      C1603   1.407       .  A
C1603      C1604   1.400       .  A
C1603      F1607   1.358       .  S
C1604      H1608   1.083       .  S
C1609      C1610   1.404       .  A
C1609      C1614   1.396       .  A
C1609      H1619   1.084       .  S
C1610      C1615   1.481       .  S
C1610      C1611   1.406       .  A
C1611      C1612   1.403       .  A
C1611      F1616   1.357       .  S
C1612      C1613   1.406       .  A
C1612      H1617   1.084       .  S
C1613      C1614   1.405       .  A
C1614      F1618   1.358       .  S
C1615      C1620   1.405       .  A
C1615      C1624   1.403       .  A
C1620      C1621   1.403       .  A
C1620      F1625   1.357       .  S
C1621      C1622   1.409       .  A
C1621      H1626   1.083       .  S
C1622      C1623   1.407       .  A
C1623      C1624   1.396       .  A
C1623      F1627   1.358       .  S
C1624      H1628   1.084       .  S
C1629      C1630   1.406       .  A
C1629      C1634   1.402       .  A
C1629      H1639   1.083       .  S
C1630      C1635   1.481       .  S
C1630      C1631   1.402       .  A
C1631      C1632   1.394       .  A
C1631      F1636   1.358       .  S
C1632      C1633   1.410       .  A
C1632      H1637   1.083       .  S
C1633      C1634   1.410       .  A
C1634      F1638   1.357       .  S
C1635      C1640   1.403       .  A
C1635      C1644   1.404       .  A
C1640      C1641   1.396       .  A
C1640      F1645   1.357       .  S
C1641      C1642   1.408       .  A
C1641      H1646   1.083       .  S
C1642      C1643   1.412       .  A
C1643      C1644   1.401       .  A
C1643      F1647   1.358       .  S
C1644      H1648   1.083       .  S
C1649      C1650   1.406       .  A
C1649      C1654   1.400       .  A
C1649      H1659   1.083       .  S
C1650      C1655   1.486       .  S
C1650      C1651   1.407       .  A
C1651      C1652   1.400       .  A
C1651      F1656   1.358       .  S
C1652      C1653   1.406       .  A
C1652      H1657   1.083       .  S
C1653      C1654   1.405       .  A
C1654      F1658   1.357       .  S
C1655      C1660   1.407       .  A
C1655      C1664   1.405       .  A
C1660      C1661   1.399       .  A
C1660      F1665   1.357       .  S
C1661      C1662   1.405       .  A
C1661      H1666   1.084       .  S
C1662      C1663   1.408       .  A
C1663      C1664   1.399       .  A
C1663      F1667   1.358       .  S
C1664      H1668   1.083       .  S
C1669      C1670   1.402       .  A
C1669      C1674   1.390       .  A
C1669      H1679   1.084       .  S
C1670      C1675   1.472       .  S
C1670      C1671   1.406       .  A
C1671      C1672   1.400       .  A
C1671      F1676   1.357       .  S
C1672      C1673   1.403       .  A
C1672      H1677   1.084       .  S
C1673      C1674   1.401       .  A
C1674      F1678   1.358       .  S
C1675      C1680   1.403       .  A
C1675      C1684   1.404       .  A
C1680      C1681   1.398       .  A
C1680      F1685   1.357       .  S
C1681      C1682   1.406       .  A
C1681      H1686   1.083       .  S
C1682      C1683   1.403       .  A
C1683      C1684   1.391       .  A
C1683      F1687   1.358       .  S
C1684      H1688   1.083       .  S
C1689      C1690   1.405       .  A
C1689      C1694   1.396       .  A
C1689      H1699   1.083       .  S
C1690      C1695   1.485       .  S
C1690      C1691   1.406       .  A
C1691      C1692   1.401       .  A
C1691      F1696   1.357       .  S
C1692      C1693   1.408       .  A
C1692      H1697   1.083       .  S
C1693      C1694   1.409       .  A
C1694      F1698   1.358       .  S
C1695      C1700   1.407       .  A
C1695      C1704   1.404       .  A
C1700      C1701   1.395       .  A
C1700      F1705   1.358       .  S
C1701      C1702   1.406       .  A
C1701      H1706   1.084       .  S
C1702      C1703   1.411       .  A
C1703      C1704   1.401       .  A
C1703      F1707   1.357       .  S
C1704      H1708   1.083       .  S
C1709      C1710   1.404       .  A
C1709      C1714   1.396       .  A
C1709      H1719   1.083       .  S
C1710      C1715   1.487       .  S
C1710      C1711   1.408       .  A
C1711      C1712   1.402       .  A
C1711      F1716   1.357       .  S
C1712      C1713   1.406       .  A
C1712      H1717   1.084       .  S
C1713      C1714   1.409       .  A
C1714      F1718   1.358       .  S
C1715      C1720   1.408       .  A
C1715      C1724   1.405       .  A
C1720      C1721   1.396       .  A
C1720      F1725   1.358       .  S
C1721      C1722   1.405       .  A
C1721      H1726   1.084       .  S
C1722      C1723   1.408       .  A
C1723      C1724   1.401       .  A
C1723      F1727   1.358       .  S
C1724      H1728   1.083       .  S
C1729      C1730   1.404       .  A
C1729      C1734   1.401       .  A
C1729      H1739   1.083       .  S
C1730      C1735   1.480       .  S
C1730      C1731   1.403       .  A
C1731      C1732   1.397       .  A
C1731      F1736   1.358       .  S
C1732      C1733   1.409       .  A
C1732      H1737   1.083       .  S
C1733      C1734   1.410       .  A
C1734      F1738   1.357       .  S
C1735      C1740   1.407       .  A
C1735      C1744   1.401       .  A
C1740      C1741   1.402       .  A
C1740      F1745   1.357       .  S
C1741      C1742   1.406       .  A
C1741      H1746   1.083       .  S
C1742      C1743   1.411       .  A
C1743      C1744   1.397       .  A
C1743      F1747   1.358       .  S
C1744      H1748   1.084       .  S
C1749      C1750   1.400       .  A
C1749      C1754   1.394       .  A
C1749      H1759   1.084       .  S
C1750      C1755   1.473       .  S
C1750      C1751   1.404       .  A
C1751      C1752   1.397       .  A
C1751      F1756   1.357       .  S
C1752      C1753   1.406       .  A
C1752      H1757   1.083       .  S
C1753      C1754   1.411       .  A
C1754      F1758   1.358       .  S
C1755      C1760   1.404       .  A
C1755      C1764   1.399       .  A
C1760      C1761   1.399       .  A
C1760      F1765   1.357       .  S
C1761      C1762   1.407       .  A
C1761      H1766   1.083       .  S
C1762      C1763   1.411       .  A
C1763      C1764   1.393       .  A
C1763      F1767   1.358       .  S
C1764      H1768   1.084       .  S
C1769      C1770   1.405       .  A
C1769      C1774   1.397       .  A
C1769      H1779   1.083       .  S
C1770      C1775   1.484       .  S
C1770      C1771   1.408       .  A
C1771      C1772   1.398       .  A
C1771      F1776   1.357       .  S
C1772      C1773   1.402       .  A
C1772      H1777   1.084       .  S
C1773      C1774   1.406       .  A
C1774      F1778   1.358       .  S
C1775      C1780   1.408       .  A
C1775      C1784   1.403       .  A
C1780      C1781   1.398       .  A
C1780      F1785   1.358       .  S
C1781      C1782   1.406       .  A
C1781      H1786   1.083       .  S
C1782      C1783   1.411       .  A
C1783      C1784   1.397       .  A
C1783      F1787   1.357       .  S
C1784      H1788   1.083       .  S
C1789      C1790   1.407       .  A
C1789      C1794   1.401       .  A
C1789      H1799   1.083       .  S
C1790      C1795   1.478       .  S
C1790      C1791   1.404       .  A
C1791      C1792   1.391       .  A
C1791      F1796   1.358       .  S
C1792      C1793   1.403       .  A
C1792      H1797   1.081       .  S
C1793      C1794   1.405       .  A
C1794      F1798   1.357       .  S
C1795      C1800   1.407       .  A
C1795      C1804   1.403       .  A
C1800      C1801   1.402       .  A
C1800      F1805   1.357       .  S
C1801      C1802   1.406       .  A
C1801      H1806   1.083       .  S
C1802      C1803   1.405       .  A
C1803      C1804   1.390       .  A
C1803      F1807   1.358       .  S
C1804      H1808   1.083       .  S
C1809      C1810   1.403       .  A
C1809      C1814   1.391       .  A
C1809      H1819   1.084       .  S
C1810      C1815   1.480       .  S
C1810      C1811   1.408       .  A
C1811      C1812   1.403       .  A
C1811      F1816   1.357       .  S
C1812      C1813   1.404       .  A
C1812      H1817   1.083       .  S
C1813      C1814   1.402       .  A
C1814      F1818   1.356       .  S
C1815      C1820   1.405       .  A
C1815      C1824   1.403       .  A
C1820      C1821   1.402       .  A
C1820      F1825   1.357       .  S
C1821      C1822   1.409       .  A
C1821      H1826   1.083       .  S
C1822      C1823   1.408       .  A
C1823      C1824   1.393       .  A
C1823      F1827   1.358       .  S
C1824      H1828   1.084       .  S
C1829      C1830   1.402       .  A
C1829      C1834   1.399       .  A
C1829      H1839   1.083       .  S
C1830      C1835   1.474       .  S
C1830      C1831   1.404       .  A
C1831      C1832   1.395       .  A
C1831      F1836   1.358       .  S
C1832      C1833   1.403       .  A
C1832      H1837   1.083       .  S
C1833      C1834   1.409       .  A
C1834      F1838   1.358       .  S
C1835      C1840   1.403       .  A
C1835      C1844   1.402       .  A
C1840      C1841   1.399       .  A
C1840      F1845   1.357       .  S
C1841      C1842   1.409       .  A
C1841      H1846   1.083       .  S
C1842      C1843   1.407       .  A
C1843      C1844   1.394       .  A
C1843      F1847   1.357       .  S
C1844      H1848   1.084       .  S
C1849      C1850   1.402       .  A
C1849      C1854   1.393       .  A
C1849      H1859   1.084       .  S
C1850      C1855   1.483       .  S
C1850      C1851   1.408       .  A
C1851      C1852   1.400       .  A
C1851      F1856   1.357       .  S
C1852      C1853   1.406       .  A
C1852      H1857   1.083       .  S
C1853      C1854   1.411       .  A
C1854      F1858   1.358       .  S
C1855      C1860   1.408       .  A
C1855      C1864   1.401       .  A
C1860      C1861   1.400       .  A
C1860      F1865   1.358       .  S
C1861      C1862   1.406       .  A
C1861      H1866   1.083       .  S
C1862      C1863   1.413       .  A
C1863      C1864   1.394       .  A
C1863      F1867   1.358       .  S
C1864      H1868   1.083       .  S
C1869      C1870   1.405       .  A
C1869      C1874   1.402       .  A
C1869      H1879   1.083       .  S
C1870      C1875   1.477       .  S
C1870      C1871   1.401       .  A
C1871      C1872   1.393       .  A
C1871      F1876   1.358       .  S
C1872      C1873   1.408       .  A
C1872      H1877   1.083       .  S
C1873      C1874   1.410       .  A
C1874      F1878   1.357       .  S
C1875      C1880   1.406       .  A
C1875      C1884   1.398       .  A
C1880      C1881   1.400       .  A
C1880      F1885   1.357       .  S
C1881      C1882   1.406       .  A
C1881      H1886   1.083       .  S
C1882      C1883   1.416       .  A
C1883      C1884   1.395       .  A
C1883      F1887   1.358       .  S
C1884      H1888   1.084       .  S
C1889      C1890   1.407       .  A
C1889      C1894   1.404       .  A
C1889      H1899   1.083       .  S
C1890      C1895   1.490       .  S
C1890      C1891   1.408       .  A
C1891      C1892   1.395       .  A
C1891      F1896   1.358       .  S
C1892      C1893   1.404       .  A
C1892      H1897   1.084       .  S
C1893      C1894   1.408       .  A
C1894      F1898   1.357       .  S
C1895      C1900   1.409       .  A
C1895      C1904   1.406       .  A
C1900      C1901   1.404       .  A
C1900      F1905   1.357       .  S
C1901      C1902   1.407       .  A
C1901      H1906   1.083       .  S
C1902      C1903   1.405       .  A
C1903      C1904   1.396       .  A
C1903      F1907   1.358       .  S
C1904      H1908   1.083       .  S
C1909      C1910   1.407       .  A
C1909      C1914   1.404       .  A
C1909      H1919   1.083       .  S
C1910      C1915   1.491       .  S
C1910      C1911   1.409       .  A
C1911      C1912   1.396       .  A
C1911      F1916   1.358       .  S
C1912      C1913   1.404       .  A
C1912      H1917   1.084       .  S
C1913      C1914   1.407       .  A
C1914      F1918   1.357       .  S
C1915      C1920   1.408       .  A
C1915      C1924   1.407       .  A
C1920      C1921   1.394       .  A
C1920      F1925   1.357       .  S
C1921      C1922   1.404       .  A
C1921      H1926   1.084       .  S
C1922      C1923   1.411       .  A
C1923      C1924   1.405       .  A
C1923      F1927   1.358       .  S
C1924      H1928   1.083       .  S
C1929      C1930   1.403       .  A
C1929      C1934   1.391       .  A
C1929      H1939   1.084       .  S
C1930      C1935   1.471       .  S
C1930      C1931   1.403       .  A
C1931      C1932   1.397       .  A
C1931      F1936   1.357       .  S
C1932      C1933   1.406       .  A
C1932      H1937   1.084       .  S
C1933      C1934   1.404       .  A
C1934      F1938   1.358       .  S
C1935      C1940   1.405       .  A
C1935      C1944   1.403       .  A
C1940      C1941   1.391       .  A
C1940      F1945   1.358       .  S
C1941      C1942   1.401       .  A
C1941      H1946   1.084       .  S
C1942      C1943   1.406       .  A
C1943      C1944   1.398       .  A
C1943      F1947   1.358       .  S
C1944      H1948   1.083       .  S
C1949      C1950   1.404       .  A
C1949      C1954   1.398       .  A
C1949      H1959   1.083       .  S
C1950      C1955   1.491       .  S
C1950      C1951   1.408       .  A
C1951      C1952   1.404       .  A
C1951      F1956   1.357       .  S
C1952      C1953   1.409       .  A
C1952      H1957   1.083       .  S
C1953      C1954   1.413       .  A
C1954      F1958   1.357       .  S
C1955      C1960   1.409       .  A
C1955      C1964   1.408       .  A
C1960      C1961   1.402       .  A
C1960      F1965   1.357       .  S
C1961      C1962   1.404       .  A
C1961      H1966   1.084       .  S
C1962      C1963   1.403       .  A
C1963      C1964   1.401       .  A
C1963      F1967   1.357       .  S
C1964      H1968   1.083       .  S
