geometry optimzed in LAMMPS
_audit_creation_date              2020-12-01 
_audit_creation_method            'lammps2cif' 
_symmetry_space_group_name_H-M    'P1' 
_symmetry_Int_Tables_number       1 
_symmetry_cell_setting            triclinic 
loop_ 
_symmetry_equiv_pos_as_xyz 
  x,y,z 
_cell_length_a                    29.20280064 
_cell_length_b                    28.79430633776592 
_cell_length_c                    30.69380332139614 
_cell_angle_alpha                 90.21521982986643 
_cell_angle_beta                  92.89896093611502 
_cell_angle_gamma                 87.79497995835514 
loop_ 
_atom_site_label 
_atom_site_type_symbol 
_atom_site_fract_x 
_atom_site_fract_y 
_atom_site_fract_z 
_atom_site_charge 
N1          N  0.43680036  0.54248197  0.29781233    -0.02900
C2          C  0.40300245  0.56175803  0.32164141    -0.00300
C3          C  0.36214023  0.56554494  0.29716662    -0.23200
C4          C  0.37095628  0.54860391  0.25642576    -0.23400
C5          C  0.41695443  0.53491303  0.25748422    -0.00400
H6          H  0.33035358  0.58188954  0.30697138     0.13400
H7          H  0.34667965  0.54748417  0.22862949     0.13400
N8          N  0.54896394  0.36578023  0.87551136    -0.02900
C9          C  0.57800490  0.33827242  0.85267836    -0.00300
C10         C  0.61692742  0.32558637  0.87772240    -0.23200
C11         C  0.61149815  0.34501584  0.91796457    -0.23400
C12         C  0.56957229  0.36937536  0.91615557    -0.00400
H13         H  0.64526820  0.30307513  0.86824979     0.13400
H14         H  0.63539541  0.34117113  0.94597050     0.13400
N15         N  0.66355222  0.54599190  0.98984949    -0.02900
C16         C  0.68035865  0.50844753  0.96735070    -0.00300
C17         C  0.71795683  0.48838551  0.99073203    -0.23200
C18         C  0.73130673  0.52001732  0.02157334    -0.23400
C19         C  0.69944728  0.55658223  0.01805624    -0.00400
H20         H  0.74041483  0.46057011  0.97937205     0.13400
H21         H  0.76396097  0.51924215  0.03992156     0.13400
N22         N  0.41494699  0.62308552  0.97626163    -0.02900
C23         C  0.36968211  0.63549716  0.97840461    -0.00300
C24         C  0.35134943  0.64665668  0.93711782    -0.23200
C25         C  0.38648529  0.64287524  0.90917332    -0.23400
C26         C  0.42527797  0.62900415  0.93402262    -0.00400
H27         H  0.31792558  0.66297680  0.92934513     0.13400
H28         H  0.38505236  0.65460509  0.87564896     0.13400
N29         N  0.36094684  0.34525568  0.19390292    -0.02900
C30         C  0.35419759  0.35475222  0.23691409    -0.00300
C31         C  0.34039996  0.31543404  0.25755044    -0.23200
C32         C  0.33755363  0.28106149  0.22702694    -0.23400
C33         C  0.34913458  0.29996686  0.18796736    -0.00400
H34         H  0.32818726  0.31344490  0.29018426     0.13400
H35         H  0.32334329  0.24738311  0.23179705     0.13400
N36         N  0.60969802  0.30281966  0.19530332    -0.02900
C37         C  0.65229759  0.28270559  0.19020956    -0.00300
C38         C  0.66710572  0.25964003  0.22812913    -0.23200
C39         C  0.63267333  0.26451156  0.25674113    -0.23400
C40         C  0.59772273  0.29065755  0.23569283    -0.00400
H41         H  0.69752002  0.23713457  0.23267041     0.13400
H42         H  0.63134846  0.24671831  0.28762461     0.13400
Zr43       Zr  0.51145893  0.49022127  0.00650686     2.17500
O44         O  0.48095811  0.49437826  0.93101340    -0.50800
O45         O  0.58617936  0.52191982  0.98770228    -0.74000
O46         O  0.46985446  0.56312149  0.98852517    -0.80700
O47         O  0.56574753  0.37335395  0.99183500    -0.82500
O48         O  0.42793493  0.58755290  0.04516310    -0.78100
O49         O  0.52819478  0.43060686  0.95202230    -0.89700
O50         O  0.61991384  0.54599341  0.05146852    -0.75700
O51         O  0.51977936  0.54086187  0.06810552    -0.85200
O52         O  0.57531205  0.45869153  0.04946424    -0.84900
O53         O  0.44068357  0.48734600  0.04425446    -0.71600
O54         O  0.49005773  0.41374123  0.02713853    -0.83800
Zr55       Zr  0.49725903  0.42818621  0.16991132     2.26400
Zr56       Zr  0.45078985  0.53648194  0.10708756     2.06300
Zr57       Zr  0.55494031  0.38297882  0.06915520     2.10000
Zr58       Zr  0.58365720  0.50912011  0.11066898     1.78800
O59         O  0.53562720  0.30300230  0.05329907    -0.92600
O60         O  0.58714316  0.59062436  0.13167208    -0.40400
O61         O  0.56703285  0.43164678  0.13205436    -0.77000
O62         O  0.51579010  0.50663413  0.15071322    -0.95700
O63         O  0.43218085  0.45981342  0.12853647    -0.89000
O64         O  0.48619721  0.37848631  0.10856761    -0.91900
C65         C  0.62007095  0.53963327  0.01005773     1.01900
C66         C  0.55220320  0.39241725  0.95542011     1.14800
C67         C  0.43967136  0.59043244  0.00539443     1.05600
O68         O  0.46913685  0.61244300  0.13717099    -0.94000
O69         O  0.42560917  0.53553981  0.18184392    -0.89800
O70         O  0.46978238  0.48397321  0.22308373    -0.82900
C71         C  0.43941270  0.51715098  0.21859394     1.12200
O72         O  0.38106943  0.40322944  0.99611798    -0.96000
Zr73       Zr  0.42150131  0.41090889  0.06704326     1.88900
O74         O  0.42866200  0.38569738  0.18715770    -0.72600
O75         O  0.36892867  0.55710332  0.10603059    -0.51900
O76         O  0.34599387  0.45009687  0.06666253    -0.96600
O77         O  0.41414510  0.33126004  0.04108776    -0.53800
O78         O  0.38388563  0.37267457  0.12618404    -0.73200
C79         C  0.39249488  0.36946929  0.16759206     0.99200
O80         O  0.51761265  0.41889313  0.24762658    -0.62000
O81         O  0.63593786  0.37023290  0.05528016    -0.56800
O82         O  0.55360892  0.36316104  0.18568455    -0.93500
O83         O  0.59155435  0.33717550  0.12730376    -0.91900
O84         O  0.66377493  0.48175072  0.11403945    -0.92200
O85         O  0.62134529  0.51726785  0.18279613    -0.91000
C86         C  0.58360951  0.33594747  0.16773945     1.18000
H87         H  0.60317563  0.45525672  0.03395478     0.34000
H88         H  0.52058366  0.52580140  0.17629615     0.44800
H89         H  0.48144828  0.34704973  0.11773325     0.38400
H90         H  0.41556152  0.49961073  0.02551423     0.34800
H91         H  0.62005906  0.59755600  0.13100529     0.26600
H92         H  0.36700947  0.59148702  0.10746528     0.32600
H93         H  0.34056630  0.45646796  0.09773518     0.38500
H94         H  0.68152551  0.50992061  0.11992536     0.32900
H95         H  0.65264243  0.38467406  0.08040081     0.31800
H96         H  0.56538869  0.28526745  0.05532139     0.33500
H97         H  0.43197098  0.31172826  0.06286750     0.32500
H98         H  0.61088777  0.49078961  0.19969902     0.36500
H99         H  0.50864932  0.38718259  0.25497192     0.29200
H100        H  0.49408012  0.52214547  0.91824865     0.33400
H101        H  0.38806640  0.43157215  0.97994629     0.36300
H102        H  0.64228685  0.33639909  0.05889582     0.28900
H103        H  0.55155596  0.41803824  0.25064826     0.41800
H104        H  0.44997058  0.61686297  0.16266562     0.31800
H105        H  0.57245579  0.60802717  0.10659830     0.39400
H106        H  0.43235337  0.32917783  0.01473877     0.31300
H107        H  0.35683832  0.54941671  0.07626512     0.31300
H108        H  0.44767895  0.50193105  0.93231996     0.31600
N109        N  0.55558676  0.21266831  0.55027750    -0.02900
C110        C  0.56599015  0.24200826  0.51818599    -0.00300
C111        C  0.55024730  0.22516244  0.47818787    -0.23200
C112        C  0.52956261  0.18398017  0.48638536    -0.23400
C113        C  0.53280082  0.17746669  0.53110596    -0.00400
H114        H  0.55566011  0.23963820  0.44645454     0.13400
H115        H  0.51666979  0.15972713  0.46212088     0.13400
N116        N  0.44909466  0.72641972  0.60776745    -0.02900
C117        C  0.43455705  0.70700396  0.64445647    -0.00300
C118        C  0.45511025  0.72712558  0.68087893    -0.23200
C119        C  0.48317036  0.76032013  0.66572420    -0.23400
C120        C  0.47864341  0.75961811  0.62050735    -0.00400
H121        H  0.44909354  0.71975666  0.71462031     0.13400
H122        H  0.50090696  0.78574899  0.68567153     0.13400
N123        N  0.62130590  0.83475199  0.74322915    -0.02900
C124        C  0.62827957  0.78896992  0.75386045    -0.00300
C125        C  0.62984690  0.76179276  0.71680054    -0.23200
C126        C  0.62190521  0.79090727  0.68213599    -0.23400
C127        C  0.61662354  0.83517038  0.69891475    -0.00400
H128        H  0.62977375  0.72422178  0.71532689     0.13400
H129        H  0.61505709  0.78024888  0.64866105     0.13400
N130        N  0.67325032  0.87974292  0.43042407    -0.02900
C131        C  0.69047505  0.88353225  0.39004543    -0.00300
C132        C  0.65586503  0.89701303  0.35992847    -0.23200
C133        C  0.61637721  0.90177412  0.38200740    -0.23400
C134        C  0.62749667  0.89099466  0.42528267    -0.00400
H135        H  0.65939491  0.90534156  0.32593850     0.13400
H136        H  0.58327063  0.91393081  0.36814201     0.13400
N137        N  0.38662061  0.11386559  0.41187736    -0.02900
C138        C  0.38982519  0.16083899  0.40976908    -0.00300
C139        C  0.40326060  0.17847955  0.45008456    -0.23200
C140        C  0.40878483  0.14147512  0.47774354    -0.23400
C141        C  0.39911624  0.10207744  0.45378994    -0.00400
H142        H  0.41261653  0.21363401  0.45787997     0.13400
H143        H  0.42257275  0.14317503  0.51083540     0.13400
N144        N  0.35384479  0.07152457  0.71426059    -0.02900
C145        C  0.33702997  0.06476551  0.75422562    -0.00300
C146        C  0.37245070  0.05468370  0.78456608    -0.23200
C147        C  0.41231285  0.05424069  0.76259574    -0.23400
C148        C  0.40025946  0.06371551  0.71915697    -0.00400
H149        H  0.36933553  0.04526331  0.81836011     0.13400
H150        H  0.44598450  0.04347648  0.77614069     0.13400
Zr151      Zr  0.45266162  0.04348198  0.57340096     2.17500
O152        O  0.38774329  0.09938718  0.57089333    -0.50800
O153        O  0.48829841  0.11755573  0.55831557    -0.74000
O154        O  0.42071752  0.06156814  0.64439450    -0.80700
O155        O  0.44770875  0.03370087  0.45231169    -0.82500
O156        O  0.46422874  0.02010225  0.69502797    -0.78100
O157        O  0.40219964  0.04440073  0.50813494    -0.89700
O158        O  0.56526227  0.10586847  0.55372060    -0.75700
O159        O  0.52251896  0.03500464  0.61745665    -0.85200
O160        O  0.51218826  0.03315381  0.52315836    -0.84900
O161        O  0.44425476  0.97425074  0.61608384    -0.71600
O162        O  0.43366717  0.97673151  0.52885170    -0.83800
Zr163      Zr  0.55795533  0.88882952  0.56567330     2.26400
Zr164      Zr  0.51557496  0.96513190  0.65862513     2.06300
Zr165      Zr  0.49424873  0.96617214  0.47991594     2.10000
Zr166      Zr  0.58162839  0.02439156  0.56715580     1.78800
O167        O  0.44419253  0.91868061  0.43393249    -0.92600
O168        O  0.62385797  0.06310028  0.62671403    -0.40400
O169        O  0.56412303  0.95781405  0.52379695    -0.77000
O170        O  0.57730406  0.95585157  0.61020879    -0.95700
O171        O  0.49775166  0.89889260  0.61456978    -0.89000
O172        O  0.48796845  0.89626762  0.52130682    -0.91900
C173        C  0.52848079  0.13140433  0.55068901     1.01900
C174        C  0.41507269  0.05600903  0.47069613     1.14800
C175        C  0.43087865  0.04887814  0.68389007     1.05600
O176        O  0.57021655  0.00354224  0.70774666    -0.94000
O177        O  0.56378372  0.89962583  0.68772399    -0.89800
O178        O  0.60433774  0.87155756  0.63144368    -0.82900
C179        C  0.59456901  0.87237920  0.67167650     1.12200
O180        O  0.34891638  0.93716360  0.56278305    -0.96000
Zr181      Zr  0.42835860  0.90786849  0.57124570     1.88900
O182        O  0.52363216  0.81622529  0.58794224    -0.72600
O183        O  0.48520976  0.92818582  0.72215079    -0.51900
O184        O  0.38643339  0.89127106  0.63563853    -0.96600
O185        O  0.38714357  0.86228868  0.51563339    -0.53800
O186        O  0.44638581  0.82789903  0.59030837    -0.73200
C187        C  0.48336124  0.80302073  0.59622198     0.99200
O188        O  0.61480188  0.82968119  0.54460347    -0.62000
O189        O  0.51910617  0.99382290  0.41024961    -0.56800
O190        O  0.60046499  0.88203680  0.49812450    -0.93500
O191        O  0.55958504  0.92686835  0.44826032    -0.91900
O192        O  0.62178001  0.04392837  0.50253063    -0.92200
O193        O  0.66251201  0.99961809  0.57129180    -0.91000
C194        C  0.59391507  0.89961742  0.45965712     1.18000
H195        H  0.51352151  0.05872913  0.50310961     0.34000
H196        H  0.60626311  0.95249126  0.62669315     0.44800
H197        H  0.48369787  0.86925284  0.50300077     0.38400
H198        H  0.41859593  0.97735210  0.63459510     0.34800
H199        H  0.61917517  0.09682466  0.62123954     0.26600
H200        H  0.45375920  0.94155138  0.72493759     0.32600
H201        H  0.41052739  0.88633357  0.65920623     0.38500
H202        H  0.61335381  0.01980763  0.48081035     0.32900
H203        H  0.49145103  0.99459814  0.39018600     0.31800
H204        H  0.46316401  0.90878323  0.40946607     0.33500
H205        H  0.40049247  0.83021824  0.51791017     0.32500
H206        H  0.66268641  0.96530481  0.57321311     0.36500
H207        H  0.63980854  0.83010440  0.56753743     0.29200
H208        H  0.39633454  0.12508583  0.59082714     0.33400
H209        H  0.34186951  0.93918881  0.53093731     0.36300
H210        H  0.52628125  0.02682274  0.41518994     0.28900
H211        H  0.60042609  0.79946878  0.54832682     0.41800
H212        H  0.60001663  0.98700619  0.70346349     0.31800
H213        H  0.60659756  0.05755510  0.65295615     0.39400
H214        H  0.39697789  0.87372944  0.48739317     0.31300
H215        H  0.48041151  0.89558250  0.71319713     0.31300
H216        H  0.36243890  0.08382573  0.58448609     0.31600
N217        N  0.11645068  0.12134678  0.96284702    -0.02900
C218        C  0.16309739  0.12304654  0.96357611    -0.00300
C219        C  0.17726918  0.12974377  0.92183134    -0.23200
C220        C  0.13855408  0.13533261  0.89526384    -0.23400
C221        C  0.10140894  0.13222446  0.92101455    -0.00400
H222        H  0.21137397  0.13782438  0.91270192     0.13400
H223        H  0.13752101  0.14888758  0.86243553     0.13400
N224        N  0.19260518  0.90394969  0.17429120    -0.02900
C225        C  0.19620841  0.91103178  0.21828877    -0.00300
C226        C  0.19763873  0.86947336  0.24079132    -0.23200
C227        C  0.19859581  0.83516139  0.21023484    -0.23400
C228        C  0.19803722  0.85677988  0.17008048    -0.00400
H229        H  0.20448893  0.86453085  0.27548879     0.13400
H230        H  0.20708658  0.79884714  0.21685837     0.13400
N231        N  0.01352595  0.00449038  0.27951640    -0.02900
C232        C  0.05057142  0.02285298  0.30148262    -0.00300
C233        C  0.06553723  0.99388009  0.33559416    -0.23200
C234        C  0.03535822  0.95885679  0.33702165    -0.23400
C235        C  0.00294346  0.96676918  0.30332269    -0.00400
H236        H  0.09095786  0.00161947  0.36124253     0.13400
H237        H  0.03390071  0.93406906  0.36328518     0.13400
N238        N  0.93551205  0.79823402  0.13337155    -0.02900
C239        C  0.91402257  0.77550076  0.09960701    -0.00300
C240        C  0.93767526  0.73431860  0.09066988    -0.23200
C241        C  0.97252381  0.72925855  0.12163406    -0.23400
C242        C  0.96972702  0.76779184  0.14844070    -0.00400
H243        H  0.92638223  0.70722541  0.06851950     0.13400
H244        H  0.99340061  0.69780357  0.12739425     0.13400
N245        N  0.83190450  0.04802775  0.97050809    -0.02900
C246        C  0.82597355  0.03700156  0.92721419    -0.00300
C247        C  0.82495340  0.07652053  0.90182469    -0.23200
C248        C  0.82429924  0.11338302  0.92962214    -0.23400
C249        C  0.82620381  0.09545880  0.97150163    -0.00400
H250        H  0.81598740  0.07855591  0.86719153     0.13400
H251        H  0.81615393  0.14887651  0.91972996     0.13400
N252        N  0.01016454  0.94944199  0.86554344    -0.02900
C253        C  0.97322259  0.92888277  0.84545930    -0.00300
C254        C  0.95535214  0.95664031  0.81166126    -0.23200
C255        C  0.98456789  0.99200133  0.80737473    -0.23400
C256        C  0.01917528  0.98624994  0.83977326    -0.00400
H257        H  0.92920165  0.94727011  0.78725731     0.13400
H258        H  0.98323253  0.01518475  0.77971580     0.13400
Zr259      Zr  0.99335104  0.02909998  0.00216479     2.17500
O260        O  0.96170983  0.10195580  0.97039409    -0.50800
O261        O  0.00134106  0.99355961  0.92951767    -0.74000
O262        O  0.05114738  0.08141189  0.97917238    -0.80700
O263        O  0.86799679  0.99746696  0.02388512    -0.82500
O264        O  0.11679740  0.06659374  0.02049152    -0.78100
O265        O  0.91159837  0.04108311  0.98192220    -0.89700
O266        O  0.02664973  0.91829971  0.93548340    -0.75700
O267        O  0.06213770  0.98129649  0.00807194    -0.85200
O268        O  0.96774908  0.95196535  0.00719009    -0.84900
O269        O  0.03529267  0.05442142  0.06754427    -0.71600
O270        O  0.94867851  0.02837787  0.06596952    -0.83800
Zr271      Zr  0.03267917  0.92636606  0.14292309     2.26400
Zr272      Zr  0.10345990  0.00474330  0.07408156     2.06300
Zr273      Zr  0.92326887  0.95052067  0.07095739     2.10000
Zr274      Zr  0.03655704  0.90423339  0.01372201     1.78800
O275        O  0.86476255  0.96906811  0.12284941    -0.92600
O276        O  0.11567593  0.88845130  0.99391426    -0.40400
O277        O  0.99210873  0.90289211  0.07702219    -0.77000
O278        O  0.07857485  0.92612521  0.07923570    -0.95700
O279        O  0.05940695  0.00305225  0.13828547    -0.89000
O280        O  0.96426033  0.97406386  0.13705534    -0.91900
C281        C  0.01323706  0.95396768  0.91268746     1.01900
C282        C  0.87243467  0.02766389  0.99359951     1.14800
C283        C  0.09335941  0.08883980  0.98961821     1.05600
O284        O  0.17383896  0.98499125  0.03763159    -0.94000
O285        O  0.15811483  0.95909853  0.12379220    -0.89800
O286        O  0.11392749  0.91099868  0.16061950    -0.82900
C287        C  0.15309186  0.92617732  0.15150329     1.12200
O288        O  0.96562977  0.12847111  0.10639330    -0.96000
Zr289      Zr  0.99105541  0.05106527  0.13142943     1.88900
O290        O  0.02135438  0.96212614  0.21477008    -0.72600
O291        O  0.14028190  0.06581726  0.11656543    -0.51900
O292        O  0.04112396  0.10843044  0.16469014    -0.96600
O293        O  0.91702473  0.07150761  0.16093682    -0.53800
O294        O  0.00022547  0.03842185  0.21001423    -0.73200
C295        C  0.01109856  0.00172473  0.23228226     0.99200
O296        O  0.04829458  0.86124051  0.19305432    -0.62000
O297        O  0.87085793  0.90103356  0.02942447    -0.56800
O298        O  0.98287169  0.86070175  0.14696468    -0.93500
O299        O  0.91885822  0.87252760  0.10279458    -0.91900
O300        O  0.99354608  0.84238557  0.97873311    -0.92200
O301        O  0.05511805  0.82368130  0.03422572    -0.91000
C302        C  0.94501023  0.84697516  0.12895798     1.18000
H303        H  0.94910935  0.94372472  0.98163098     0.34000
H304        H  0.10428246  0.90408855  0.08190035     0.44800
H305        H  0.94625089  0.97035672  0.16225768     0.38400
H306        H  0.04386424  0.08623675  0.06435330     0.34800
H307        H  0.12774726  0.86240375  0.01265795     0.26600
H308        H  0.14743613  0.05196699  0.14571249     0.32600
H309        H  0.07044711  0.09112353  0.17192045     0.38500
H310        H  0.96871791  0.83658552  0.99863137     0.32900
H311        H  0.84010913  0.90927616  0.04000311     0.31800
H312        H  0.86496107  0.94158429  0.14216095     0.33500
H313        H  0.92320553  0.09767137  0.18114767     0.32500
H314        H  0.05006465  0.82237768  0.06585428     0.36500
H315        H  0.06994457  0.83970202  0.17847302     0.29200
H316        H  0.97084679  0.10175812  0.93974398     0.33400
H317        H  0.96967856  0.12812838  0.07456070     0.36300
H318        H  0.86988029  0.91246282  0.99899286     0.28900
H319        H  0.06621667  0.87371298  0.21843342     0.41800
H320        H  0.19719256  0.00491731  0.05175641     0.31800
H321        H  0.11302221  0.87496702  0.96421743     0.39400
H322        H  0.91054862  0.04536084  0.18020619     0.31300
H323        H  0.17055681  0.06870060  0.10389799     0.31300
H324        H  0.97859301  0.12746707  0.98476527     0.31600
N325        N  0.23902708  0.43513431  0.66061887    -0.02900
C326        C  0.26353797  0.40356026  0.68615935    -0.00300
C327        C  0.24253033  0.36147677  0.68438899    -0.23200
C328        C  0.20408822  0.36735277  0.65690137    -0.23400
C329        C  0.20231504  0.41297973  0.64253663    -0.00400
H330        H  0.25275480  0.33053362  0.70287704     0.13400
H331        H  0.17806801  0.34200086  0.65082823     0.13400
N332        N  0.77143733  0.50316903  0.48217460    -0.02900
C333        C  0.75158934  0.52983636  0.44914335    -0.00300
C334        C  0.78293397  0.55999765  0.43426583    -0.23200
C335        C  0.82339239  0.55121487  0.45803682    -0.23400
C336        C  0.81581135  0.51629881  0.48748602    -0.00400
H337        H  0.77740715  0.58486854  0.40801919     0.13400
H338        H  0.85500289  0.56897483  0.45473012     0.13400
N339        N  0.87109273  0.66645776  0.66656344    -0.02900
C340        C  0.82721203  0.68345524  0.65952809    -0.00300
C341        C  0.79658790  0.64816344  0.65975647    -0.23200
C342        C  0.82214434  0.60757857  0.66466085    -0.23400
C343        C  0.86786179  0.61906758  0.66679716    -0.00400
H344        H  0.76016600  0.65098347  0.65120681     0.13400
H345        H  0.80887820  0.57316591  0.66044407     0.13400
N346        N  0.14503052  0.28739847  0.48266152    -0.02900
C347        C  0.18822331  0.27075835  0.49419170    -0.00300
C348        C  0.21858357  0.30624452  0.49693196    -0.23200
C349        C  0.19333590  0.34660827  0.48905962    -0.23400
C350        C  0.14794703  0.33472004  0.48245543    -0.00400
H351        H  0.25414175  0.30363409  0.50875316     0.13400
H352        H  0.20592065  0.38118620  0.49419312     0.13400
N353        N  0.93211837  0.42793370  0.75071070    -0.02900
C354        C  0.96485525  0.41436501  0.78193103    -0.00300
C355        C  0.96750007  0.44672306  0.81512636    -0.23200
C356        C  0.93273208  0.47899753  0.80641324    -0.23400
C357        C  0.90910093  0.46474640  0.76872442    -0.00400
H358        H  0.98746833  0.44330204  0.84570628     0.13400
H359        H  0.92032978  0.50405964  0.82987472     0.13400
N360        N  0.08507592  0.53296644  0.38794801    -0.02900
C361        C  0.05366119  0.54929040  0.35650019    -0.00300
C362        C  0.05153008  0.51930928  0.32135926    -0.23200
C363        C  0.08525809  0.48581054  0.32912280    -0.23400
C364        C  0.10771385  0.49665432  0.36842206    -0.00400
H365        H  0.03274355  0.52523172  0.29044246     0.13400
H366        H  0.09790461  0.46204723  0.30466284     0.13400
Zr367      Zr  0.91971113  0.47489284  0.60021236     2.17500
O368        O  0.86293228  0.41494061  0.59967111    -0.50800
O369        O  0.88932041  0.54535562  0.63660265    -0.74000
O370        O  0.91656412  0.44910392  0.67673661    -0.80700
O371        O  0.89402597  0.50534982  0.51134204    -0.82500
O372        O  0.98894618  0.42568693  0.69981187    -0.78100
O373        O  0.84597344  0.48499348  0.55786610    -0.89700
O374        O  0.94321481  0.60017098  0.64404473    -0.75700
O375        O  0.98413976  0.50201247  0.64218831    -0.85200
O376        O  0.94648414  0.54224406  0.56245855    -0.84900
O377        O  0.97678728  0.41161125  0.60167939    -0.71600
O378        O  0.94443978  0.45049331  0.52825850    -0.83800
Zr379      Zr  0.09080021  0.48108603  0.53734352     2.26400
Zr380      Zr  0.04127923  0.44045630  0.64303287     2.06300
Zr381      Zr  0.97151817  0.51706647  0.49224981     2.10000
Zr382      Zr  0.00943023  0.56901130  0.60642035     1.78800
O383        O  0.93604574  0.49402880  0.42228144    -0.92600
O384        O  0.03629430  0.58787248  0.68091555    -0.40400
O385        O  0.03493469  0.54551345  0.53560778    -0.77000
O386        O  0.06809743  0.50780417  0.60821260    -0.95700
O387        O  0.06422470  0.41494698  0.57327761    -0.90200
O388        O  0.02703401  0.45391509  0.49412920    -0.91900
C389        C  0.90287459  0.58576627  0.64921661     1.01900
C390        C  0.85256657  0.49992455  0.51976150     1.14800
C391        C  0.94609931  0.43311081  0.70629948     1.05600
O392        O  0.07504589  0.47541200  0.70888013    -0.94000
O393        O  0.12360827  0.42650718  0.64701367    -0.89800
O394        O  0.15598726  0.45537629  0.58730474    -0.82900
C395        C  0.15834361  0.43447842  0.62456108     1.12200
O396        O  0.93338800  0.34060719  0.52445879    -0.96000
Zr397      Zr  0.00099834  0.38767043  0.53058857     1.88900
O398        O  0.12233781  0.41011052  0.50421266    -0.72600
O399        O  0.05507073  0.35961317  0.66519578    -0.51900
O400        O  0.01925046  0.31607758  0.57098682    -0.96600
O401        O  0.98207195  0.36327658  0.45581771    -0.53800
O402        O  0.07094144  0.35281017  0.50187682    -0.73200
C403        C  0.11080230  0.36809176  0.49577277     0.99200
O404        O  0.15603692  0.53100435  0.53530243    -0.62000
O405        O  0.94772502  0.59449513  0.46566969    -0.56800
O406        O  0.09814451  0.50898342  0.46172763    -0.93500
O407        O  0.02646633  0.53306881  0.43738254    -0.91900
O408        O  0.98528827  0.64119876  0.56897331    -0.92200
O409        O  0.07098974  0.62381971  0.60728565    -0.91000
C410        C  0.06961823  0.52602343  0.43179565     1.18000
H411        H  0.92305525  0.56682639  0.55926657     0.34000
H412        H  0.09467239  0.51865278  0.62469107     0.44800
H413        H  0.03557889  0.44525522  0.46513551     0.38400
H414        H  0.96539029  0.38523584  0.61654315     0.34800
H415        H  0.03543842  0.62225127  0.68248325     0.26600
H416        H  0.07893832  0.34715699  0.64604100     0.32600
H417        H  0.02745171  0.29274759  0.54862147     0.38500
H418        H  0.95414206  0.64955882  0.57845882     0.32900
H419        H  0.97644941  0.61169520  0.46581764     0.31800
H420        H  0.90695971  0.47989209  0.42933612     0.33500
H421        H  0.00945578  0.36920765  0.43923344     0.32500
H422        H  0.09750104  0.60589103  0.59602561     0.36500
H423        H  0.17660134  0.51556885  0.51453460     0.29200
H424        H  0.84220720  0.42380579  0.62313272     0.33400
H425        H  0.92313604  0.33837362  0.55460151     0.36300
H426        H  0.93924980  0.58999051  0.43433161     0.28900
H427        H  0.14404221  0.55957367  0.52013513     0.41800
H428        H  0.06886145  0.45387348  0.73274977     0.31800
H429        H  0.01154962  0.57874668  0.69967313     0.39400
H430        H  0.95865489  0.38665339  0.44467241     0.31300
H431        H  0.07081688  0.36128639  0.69446721     0.31300
H432        H  0.88000321  0.38670781  0.61079106     0.31600
C433        C  0.99633775  0.81405395  0.79047536    -0.27000
C434        C  0.95172169  0.79737823  0.78597604     0.02600
C435        C  0.91730461  0.81873249  0.81078513     0.30700
C436        C  0.92661096  0.85852261  0.83594032    -0.18800
C437        C  0.97015794  0.87783196  0.83735189    -0.28200
C438        C  0.00575941  0.85357985  0.81617784     0.44700
C439        C  0.94018113  0.75891398  0.75466284     0.05900
O440        O  0.87369968  0.80233912  0.80879656    -0.56800
H441        H  0.89854490  0.87663557  0.85130152     0.18800
O442        O  0.04861186  0.87138809  0.81599989    -0.63500
H443        H  0.02356559  0.79752050  0.77258969     0.17300
C444        C  0.94474334  0.76305041  0.70920514     0.29500
C445        C  0.92572263  0.72987019  0.68024824    -0.24400
C446        C  0.90186776  0.69215418  0.69567325    -0.23600
C447        C  0.90016291  0.68683670  0.74125899     0.41000
C448        C  0.91930465  0.71964704  0.77004944    -0.26100
O449        O  0.96397823  0.80142652  0.69247056    -0.58000
H450        H  0.92776721  0.73511126  0.64566584     0.16600
O451        O  0.87611626  0.65178165  0.75800248    -0.59400
H452        H  0.91562585  0.71556450  0.80476748     0.15100
H453        H  0.06445760  0.86061664  0.84367716     0.46900
H454        H  0.99573950  0.79112343  0.68610522     0.42300
H455        H  0.89927933  0.63286046  0.77558225     0.45700
H456        H  0.85446568  0.82586240  0.79200290     0.37200
C457        C  0.04411400  0.72268821  0.24331430    -0.27000
C458        C  0.01229152  0.72386347  0.27606411     0.02600
C459        C  0.97247363  0.75300380  0.27013924     0.30700
C460        C  0.96147598  0.77379239  0.22918397    -0.18800
C461        C  0.98987342  0.76555804  0.19408359    -0.28200
C462        C  0.03330465  0.74331382  0.20263033     0.44700
C463        C  0.01644672  0.68616882  0.30961487     0.05900
O464        O  0.94321843  0.75920357  0.30346709    -0.56800
H465        H  0.92854988  0.79202948  0.22375676     0.18800
O466        O  0.06294357  0.73643171  0.16967584    -0.63500
H467        H  0.07539836  0.70133013  0.24741536     0.17300
C468        C  0.98392647  0.65108419  0.30854834     0.29500
C469        C  0.99420815  0.60840736  0.32948548    -0.24400
C470        C  0.03736910  0.59889322  0.35069388    -0.23600
C471        C  0.06844333  0.63520049  0.35476123     0.41000
C472        C  0.05783993  0.67833338  0.33444888    -0.26100
O473        O  0.94420295  0.65591538  0.28283530    -0.58000
H474        H  0.97005056  0.58090014  0.32531778     0.16600
O475        O  0.11166641  0.62707635  0.37327018    -0.59400
H476        H  0.08374040  0.70430271  0.33487013     0.15100
H477        H  0.09098989  0.75297241  0.17893385     0.46900
H478        H  0.95265144  0.64585960  0.25325297     0.42300
H479        H  0.10851091  0.63165420  0.40502251     0.45700
H480        H  0.91411895  0.74506295  0.29333376     0.37200
C481        C  0.11084513  0.13047622  0.33838421    -0.27000
C482        C  0.07470832  0.15633756  0.35678441     0.02600
C483        C  0.02940179  0.14279731  0.34695112     0.30700
C484        C  0.02116709  0.10204945  0.32249422    -0.18800
C485        C  0.05768157  0.07359732  0.30813378    -0.28200
C486        C  0.10269497  0.08949036  0.31458932     0.44700
C487        C  0.08544548  0.19535913  0.38799159     0.05900
O488        O  0.99300546  0.16892112  0.36161575    -0.56800
H489        H  0.98635130  0.09046936  0.31834314     0.18800
O490        O  0.13947024  0.06253884  0.30194008    -0.63500
H491        H  0.14595406  0.14035120  0.34500905     0.17300
C492        C  0.07213618  0.19495508  0.43174763     0.29500
C493        C  0.08882714  0.22794991  0.46213398    -0.24400
C494        C  0.11855740  0.26209766  0.44978364    -0.23600
C495        C  0.12949627  0.26425449  0.40545124     0.41000
C496        C  0.11329226  0.23110142  0.37525937    -0.26100
O497        O  0.04490509  0.16089773  0.44584810    -0.58000
H498        H  0.08053863  0.22532644  0.49600052     0.16600
O499        O  0.15816521  0.29727522  0.39178270    -0.59400
H500        H  0.12385891  0.23238593  0.34196486     0.15100
H501        H  0.14025897  0.06707864  0.26998227     0.46900
H502        H  0.06630305  0.13754846  0.46039280     0.42300
H503        H  0.18953079  0.28291428  0.39550115     0.45700
H504        H  0.97921154  0.14945668  0.38370058     0.37200
C505        C  0.03765774  0.31431980  0.83004631    -0.27000
C506        C  0.00559968  0.27923060  0.83134542     0.02600
C507        C  0.96344350  0.28568468  0.80707015     0.30700
C508        C  0.95174830  0.32890086  0.78707552    -0.18800
C509        C  0.98233732  0.36549512  0.78954372    -0.28200
C510        C  0.02665790  0.35663491  0.80873291     0.44700
C511        C  0.01710672  0.23696977  0.85881693     0.05900
O512        O  0.93219049  0.25129784  0.80534727    -0.56800
H513        H  0.91760012  0.33471307  0.77217100     0.18800
O514        O  0.05867322  0.39025398  0.80893911    -0.63500
H515        H  0.07112969  0.30928620  0.84660709     0.17300
C516        C  0.02130609  0.19241370  0.84010349     0.29500
C517        C  0.04067222  0.15498551  0.86490190    -0.24400
C518        C  0.05956993  0.16146474  0.90752006    -0.23600
C519        C  0.05163473  0.20507988  0.92751547     0.41000
C520        C  0.03002329  0.24209244  0.90338757    -0.26100
O521        O  0.01172375  0.18609604  0.79633483    -0.58000
H522        H  0.04703651  0.12227929  0.84863856     0.16600
O523        O  0.06986982  0.21366573  0.96866986    -0.59400
H524        H  0.02691182  0.27603052  0.91855732     0.15100
H525        H  0.07733964  0.38293331  0.78351787     0.46900
H526        H  0.03937436  0.19601932  0.78191859     0.42300
H527        H  0.09988264  0.22750861  0.96428908     0.45700
H528        H  0.93158716  0.23980006  0.77482807     0.37200
C529        C  0.20587361  0.18551073  0.58697334    -0.27000
C530        C  0.24376373  0.15856086  0.57359746     0.02600
C531        C  0.25731178  0.16323292  0.53042304     0.30700
C532        C  0.23508940  0.19664504  0.50248611    -0.18800
C533        C  0.19948015  0.22600560  0.51706105    -0.28200
C534        C  0.18381264  0.21902390  0.55916698     0.44700
C535        C  0.27378615  0.13339044  0.60730638     0.05900
O536        O  0.29400984  0.13732125  0.51614846    -0.56800
H537        H  0.24805676  0.20205718  0.47050482     0.18800
O538        O  0.15101841  0.24877548  0.57543326    -0.63500
H539        H  0.19560315  0.18306202  0.62029709     0.17300
C540        C  0.26652868  0.08726605  0.61995926     0.29500
C541        C  0.29387039  0.06643500  0.65430285    -0.24400
C542        C  0.32824903  0.09126166  0.67674306    -0.23600
C543        C  0.33486993  0.13751784  0.66444367     0.41000
C544        C  0.30826749  0.15794234  0.62977083    -0.26100
O545        O  0.23274253  0.06238228  0.59925455    -0.58000
H546        H  0.28784895  0.03114480  0.66392203     0.16600
O547        O  0.36637310  0.16359724  0.68713269    -0.59400
H548        H  0.31371787  0.19368587  0.62109627     0.15100
H549        H  0.12227008  0.23149558  0.57343507     0.46900
H550        H  0.20410649  0.07225950  0.61330887     0.42300
H551        H  0.35051077  0.17533064  0.71303255     0.45700
H552        H  0.31960993  0.15896718  0.51607658     0.37200
C553        C  0.22798674  0.00669488  0.78240475    -0.27000
C554        C  0.19964147  0.04463511  0.79471113     0.02600
C555        C  0.21615392  0.08991873  0.79059039     0.30700
C556        C  0.26036390  0.09634209  0.77579181    -0.18800
C557        C  0.28829732  0.05835118  0.76367643    -0.28200
C558        C  0.27172966  0.01325909  0.76702221     0.44700
C559        C  0.15347413  0.03564739  0.81180790     0.05900
O560        O  0.19041552  0.12800867  0.80302065    -0.56800
H561        H  0.27324743  0.13108733  0.77470594     0.18800
O562        O  0.29889149  0.97515986  0.75701573    -0.63500
H563        H  0.21619918  0.97162353  0.78487097     0.17300
C564        C  0.11290109  0.05714579  0.79353181     0.29500
C565        C  0.06997517  0.04405096  0.80682392    -0.24400
C566        C  0.06550587  0.00732113  0.83648135    -0.23600
C567        C  0.10637363  0.98722386  0.85633236     0.41000
C568        C  0.14950875  0.00175502  0.84421061    -0.26100
O569        O  0.11448983  0.08895665  0.76053418    -0.58000
H570        H  0.03998936  0.06161878  0.79159712     0.16600
O571        O  0.10507772  0.95058384  0.88458729    -0.59400
H572        H  0.18021862  0.98475337  0.85888981     0.15100
H573        H  0.29024120  0.96781727  0.72617224     0.46900
H574        H  0.10315533  0.07280727  0.73372966     0.42300
H575        H  0.11863938  0.96172683  0.91283492     0.45700
H576        H  0.18277382  0.14587596  0.77587962     0.37200
C577        C  0.27866361  0.00480589  0.24888865    -0.27000
C578        C  0.26991660  0.01108520  0.29311394     0.02600
C579        C  0.23124299  0.99111110  0.30977164     0.30700
C580        C  0.20387431  0.96261540  0.28317936    -0.18800
C581        C  0.21468555  0.95313663  0.23983108    -0.28200
C582        C  0.25091923  0.97661129  0.22206624     0.44700
C583        C  0.30134075  0.03788830  0.32214074     0.05900
O584        O  0.22135847  0.99730727  0.35268590    -0.56800
H585        H  0.17590602  0.94529550  0.29737991     0.18800
O586        O  0.26191254  0.96929732  0.17963343    -0.63500
H587        H  0.30774443  0.02089740  0.23542894     0.17300
C588        C  0.34685565  0.02184453  0.33246653     0.29500
C589        C  0.37479913  0.04642607  0.36250202    -0.24400
C590        C  0.35800317  0.08744147  0.38192476    -0.23600
C591        C  0.31265825  0.10366350  0.37080417     0.41000
C592        C  0.28470241  0.07874878  0.34155862    -0.26100
O593        O  0.36357166  0.98117527  0.31482071    -0.58000
H594        H  0.40963352  0.03383327  0.37023787     0.16600
O595        O  0.29487199  0.14324647  0.38960307    -0.59400
H596        H  0.24972567  0.09131771  0.33410064     0.15100
H597        H  0.24452547  0.99408014  0.16276291     0.46900
H598        H  0.37809291  0.99048671  0.28784492     0.42300
H599        H  0.29458850  0.16742948  0.36664988     0.45700
H600        H  0.23482476  0.96935576  0.36801834     0.37200
C601        C  0.73224896  0.79007363  0.50355762    -0.27000
C602        C  0.74323029  0.81584589  0.54126210     0.02600
C603        C  0.72967734  0.86332325  0.54278950     0.30700
C604        C  0.70667470  0.88453837  0.50615222    -0.18800
C605        C  0.69666933  0.85859256  0.46819287    -0.28200
C606        C  0.70936218  0.81106725  0.46733324     0.44700
C607        C  0.77024768  0.79198790  0.57743700     0.05900
O608        O  0.74008923  0.88939896  0.57918222    -0.56800
H609        H  0.69691183  0.92116829  0.50709770     0.18800
O610        O  0.69856155  0.78460713  0.43132548    -0.63500
H611        H  0.74178394  0.75336362  0.50213961     0.17300
C612        C  0.75128616  0.78354905  0.61776080     0.29500
C613        C  0.77362630  0.75217313  0.64741167    -0.24400
C614        C  0.81422950  0.72779709  0.63680265    -0.23600
C615        C  0.83461244  0.73846851  0.59755684     0.41000
C616        C  0.81258556  0.77045467  0.56843975    -0.26100
O617        O  0.70857250  0.80147213  0.62630860    -0.58000
H618        H  0.75689045  0.74350750  0.67687663     0.16600
O619        O  0.87216874  0.71285459  0.58448307    -0.59400
H620        H  0.82696841  0.77582449  0.53705687     0.15100
H621        H  0.72558211  0.78570568  0.41310084     0.46900
H622        H  0.68740962  0.77683865  0.61689126     0.42300
H623        H  0.89428724  0.73557443  0.57491007     0.45700
H624        H  0.71180971  0.89054383  0.59579279     0.37200
C625        C  0.79680689  0.87289489  0.32359963    -0.27000
C626        C  0.82664617  0.90193975  0.34700954     0.02600
C627        C  0.81337585  0.92050900  0.38723859     0.30700
C628        C  0.77048533  0.91075341  0.40315868    -0.18800
C629        C  0.73970807  0.88317687  0.37900977    -0.28200
C630        C  0.75358699  0.86377782  0.33904942     0.44700
C631        C  0.87048997  0.91511078  0.32851477     0.05900
O632        O  0.84110821  0.95039660  0.41009395    -0.56800
H633        H  0.76004546  0.92742501  0.43295095     0.18800
O634        O  0.72403867  0.83816525  0.31341896    -0.63500
H635        H  0.80629904  0.85880296  0.29239442     0.17300
C636        C  0.90974917  0.88517771  0.33135444     0.29500
C637        C  0.95221688  0.90094663  0.31910807    -0.24400
C638        C  0.95645630  0.94673892  0.30404561    -0.23600
C639        C  0.91633708  0.97546326  0.29852236     0.41000
C640        C  0.87400142  0.95967693  0.31100561    -0.26100
O641        O  0.90739877  0.84123315  0.34795193    -0.58000
H642        H  0.98242018  0.87808472  0.32358589     0.16600
O643        O  0.91871830  0.02056393  0.28499455    -0.59400
H644        H  0.84403310  0.98308857  0.30866456     0.15100
H645        H  0.72282654  0.80781122  0.32838455     0.46900
H646        H  0.90973312  0.84509877  0.38009955     0.42300
H647        H  0.90634538  0.02069119  0.25433693     0.45700
H648        H  0.86480912  0.93021534  0.42568663     0.37200
C649        C  0.66014618  0.90604323  0.84000256    -0.27000
C650        C  0.70166506  0.92286207  0.82614513     0.02600
C651        C  0.71183127  0.91642621  0.78194077     0.30700
C652        C  0.68326020  0.89024589  0.75401910    -0.18800
C653        C  0.64329456  0.87091093  0.76876691    -0.28200
C654        C  0.63067299  0.88148715  0.81146672     0.44700
C655        C  0.73370831  0.94756751  0.85744984     0.05900
O656        O  0.75014142  0.93476288  0.76573422    -0.56800
H657        H  0.69357346  0.88315124  0.72117545     0.18800
O658        O  0.59006830  0.86716011  0.82611130    -0.63500
H659        H  0.65083178  0.91092069  0.87345030     0.17300
C660        C  0.71726506  0.98244309  0.88580614     0.29500
C661        C  0.74803894  0.00747900  0.91249613    -0.24400
C662        C  0.79574120  0.99985018  0.91061416    -0.23600
C663        C  0.81232984  0.96478760  0.88289219     0.41000
C664        C  0.78152730  0.93811094  0.85761013    -0.26100
O665        O  0.67138779  0.99464438  0.88565493    -0.58000
H666        H  0.73469631  0.03582795  0.93208517     0.16600
O667        O  0.85853613  0.95877806  0.87775689    -0.59400
H668        H  0.79527008  0.91118663  0.83668345     0.15100
H669        H  0.56719647  0.89234863  0.81785518     0.46900
H670        H  0.66645667  0.01896584  0.86292305     0.42300
H671        H  0.86968295  0.93689153  0.90116118     0.45700
H672        H  0.74177060  0.96800936  0.76025311     0.37200
C673        C  0.32426660  0.64579853  0.66201522    -0.27000
C674        C  0.33590368  0.60031344  0.64877509     0.02600
C675        C  0.38009911  0.59056165  0.63337796     0.30700
C676        C  0.41160397  0.62578290  0.63151445    -0.18800
C677        C  0.40021502  0.67075821  0.64561254    -0.28200
C678        C  0.35597926  0.68099111  0.66019145     0.44700
C679        C  0.30193453  0.56322194  0.65000170     0.05900
O680        O  0.39302922  0.54653067  0.62044493    -0.56800
H681        H  0.44533464  0.61779325  0.61962995     0.18800
O682        O  0.34309435  0.72551671  0.67163816    -0.63500
H683        H  0.29022568  0.65429944  0.67285484     0.17300
C684        C  0.28001879  0.55260730  0.68852206     0.29500
C685        C  0.25521231  0.51203886  0.69052637    -0.24400
C686        C  0.25138548  0.48222731  0.65443458    -0.23600
C687        C  0.26941093  0.49506030  0.61493344     0.41000
C688        C  0.29416410  0.53549871  0.61280332    -0.26100
O689        O  0.28583853  0.57926350  0.72536592    -0.58000
H690        H  0.24162728  0.50202907  0.72116684     0.16600
O691        O  0.26821377  0.46516185  0.58007118    -0.59400
H692        H  0.30975250  0.54370824  0.58261681     0.15100
H693        H  0.32984992  0.74008074  0.64438034     0.46900
H694        H  0.25680446  0.59805729  0.72710541     0.42300
H695        H  0.24443184  0.47871221  0.55917116     0.45700
H696        H  0.41137812  0.53293635  0.64566171     0.37200
C697        C  0.68361649  0.43663499  0.53790223    -0.27000
C698        C  0.69356130  0.39132554  0.52291317     0.02600
C699        C  0.73345142  0.38293733  0.49959286     0.30700
C700        C  0.76170836  0.41965164  0.49039054    -0.18800
C701        C  0.74997554  0.46528576  0.50262262    -0.28200
C702        C  0.71107203  0.47358183  0.52726382     0.44700
C703        C  0.65951234  0.35440272  0.52678115     0.05900
O704        O  0.74195229  0.34017824  0.48117255    -0.56800
H705        H  0.79059993  0.41324661  0.47012565     0.18800
O706        O  0.69867551  0.51803160  0.53938884    -0.63500
H707        H  0.65308906  0.44379637  0.55580779     0.17300
C708        C  0.67208350  0.31049629  0.54489098     0.29500
C709        C  0.64041696  0.27499224  0.54397052    -0.24400
C710        C  0.59632589  0.28203694  0.52410335    -0.23600
C711        C  0.58348987  0.32597116  0.50655853     0.41000
C712        C  0.61470483  0.36189918  0.50850629    -0.26100
O713        O  0.71586312  0.30124407  0.56173003    -0.58000
H714        H  0.65112519  0.24110373  0.55687690     0.16600
O715        O  0.54101297  0.33365570  0.48617794    -0.59400
H716        H  0.60455995  0.39513808  0.49383477     0.15100
H717        H  0.67248927  0.52757705  0.51913638     0.46900
H718        H  0.71536433  0.31041387  0.59287342     0.42300
H719        H  0.52192027  0.34844071  0.50856421     0.45700
H720        H  0.77141754  0.32831828  0.49521370     0.37200
C721        C  0.49934487  0.29027699  0.31026622    -0.27000
C722        C  0.46600465  0.26875408  0.28340469     0.02600
C723        C  0.47273702  0.26415495  0.23849385     0.30700
C724        C  0.51478054  0.27574560  0.22221242    -0.18800
C725        C  0.55021703  0.29177469  0.25037221    -0.28200
C726        C  0.54137920  0.30144669  0.29409277     0.44700
C727        C  0.43149872  0.24174049  0.30500094     0.05900
O728        O  0.43932112  0.24612302  0.21103753    -0.56800
H729        H  0.52089547  0.26851179  0.18829067     0.18800
O730        O  0.57492491  0.31838036  0.32201429    -0.63500
H731        H  0.49467942  0.29425447  0.34490575     0.17300
C732        C  0.43394994  0.19282304  0.30229835     0.29500
C733        C  0.41442935  0.16625844  0.33392325    -0.24400
C734        C  0.39296475  0.18769386  0.36895433    -0.23600
C735        C  0.38506403  0.23635774  0.36840095     0.41000
C736        C  0.40479384  0.26308242  0.33670093    -0.26100
O737        O  0.46031586  0.17056315  0.27227580    -0.58000
H738        H  0.42116567  0.12904203  0.33363838     0.16600
O739        O  0.35988005  0.25792374  0.39985113    -0.59400
H740        H  0.40234232  0.30063030  0.33898711     0.15100
H741        H  0.56779575  0.35226267  0.32385783     0.46900
H742        H  0.49058876  0.16409737  0.28763224     0.42300
H743        H  0.38023166  0.28068250  0.41446727     0.45700
H744        H  0.45357488  0.21841687  0.19704534     0.37200
C745        C  0.74715942  0.25122332  0.11562385    -0.27000
C746        C  0.72738853  0.21492741  0.09133681     0.02600
C747        C  0.67988183  0.20868083  0.09383525     0.30700
C748        C  0.65370482  0.23654896  0.12183277    -0.18800
C749        C  0.67428012  0.27016999  0.14882974    -0.28200
C750        C  0.72136541  0.27784829  0.14486373     0.44700
C751        C  0.75668980  0.18359445  0.06408906     0.05900
O752        O  0.65904008  0.17387623  0.07065495    -0.56800
H753        H  0.61807084  0.22883132  0.12547036     0.18800
O754        O  0.74322665  0.30905294  0.17179015    -0.63500
H755        H  0.78349858  0.25693584  0.11412050     0.17300
C756        C  0.78373059  0.20220660  0.03229818     0.29500
C757        C  0.81054742  0.17284064  0.00650949    -0.24400
C758        C  0.80849547  0.12401229  0.00869259    -0.23600
C759        C  0.78198654  0.10514946  0.04111783     0.41000
C760        C  0.75718392  0.13488635  0.06897037    -0.26100
O761        O  0.78224415  0.24910172  0.02429651    -0.58000
H762        H  0.83084723  0.18875979  0.98251686     0.16600
O763        O  0.77637251  0.05814372  0.04315171    -0.59400
H764        H  0.73672362  0.11974575  0.09332114     0.15100
H765        H  0.75759628  0.29028114  0.19621101     0.46900
H766        H  0.75273001  0.25553378  0.00756991     0.42300
H767        H  0.79412171  0.04759876  0.06993479     0.45700
H768        H  0.65142999  0.18714049  0.04129389     0.37200
C769        C  0.27312502  0.27049996  0.08924566    -0.27000
C770        C  0.28062692  0.22193067  0.08678755     0.02600
C771        C  0.31676487  0.20131118  0.11321988     0.30700
C772        C  0.34302849  0.22860344  0.14223875    -0.18800
C773        C  0.33378093  0.27676522  0.14651058    -0.28200
C774        C  0.29890575  0.29770873  0.11901440     0.44700
C775        C  0.24961671  0.19293287  0.05818714     0.05900
O776        O  0.32490002  0.15404905  0.11318695    -0.56800
H777        H  0.36836234  0.21129292  0.16416432     0.18800
O778        O  0.28611983  0.34361080  0.12462543    -0.63500
H779        H  0.24599131  0.28741388  0.06905571     0.17300
C780        C  0.20131724  0.19917559  0.05793834     0.29500
C781        C  0.17304868  0.17237291  0.03017907    -0.24400
C782        C  0.19188854  0.13955410  0.00159814    -0.23600
C783        C  0.23987091  0.13113919  0.00380669     0.41000
C784        C  0.26822678  0.15809599  0.03123675    -0.26100
O785        O  0.18130156  0.23114341  0.08504191    -0.58000
H786        H  0.13631756  0.17933370  0.02931909     0.16600
O787        O  0.25957521  0.09773723  0.97799070    -0.59400
H788        H  0.30505718  0.15239790  0.03059866     0.15100
H789        H  0.29202465  0.35909769  0.09676283     0.46900
H790        H  0.16652231  0.25537844  0.06556459     0.42300
H791        H  0.25742971  0.06821183  0.99416342     0.45700
H792        H  0.30199854  0.14149434  0.13235002     0.37200
C793        C  0.28133117  0.45947132  0.26388891    -0.27000
C794        C  0.28674217  0.45770828  0.30969834     0.02600
C795        C  0.32542423  0.43319884  0.32848449     0.30700
C796        C  0.35389466  0.40594350  0.30212044    -0.18800
C797        C  0.34352854  0.40111326  0.25702144    -0.28200
C798        C  0.30922158  0.43130943  0.23754501     0.44700
C799        C  0.24684616  0.47160564  0.33637009     0.05900
O800        O  0.33264141  0.43137512  0.37294513    -0.56800
H801        H  0.38037224  0.38353342  0.31785893     0.18800
O802        O  0.29774737  0.42828694  0.19381301    -0.63500
H803        H  0.25202455  0.47838460  0.24865439     0.17300
C804        C  0.22720636  0.51709494  0.33563362     0.29500
C805        C  0.18406820  0.52632007  0.35295957    -0.24400
C806        C  0.15864674  0.49033283  0.36938215    -0.23600
C807        C  0.17933842  0.44530420  0.37218745     0.41000
C808        C  0.22329703  0.43650472  0.35663220    -0.26100
O809        O  0.24866672  0.55229221  0.31592827    -0.58000
H810        H  0.16831848  0.56076090  0.34895914     0.16600
O811        O  0.15485954  0.40856911  0.38526114    -0.59400
H812        H  0.23721150  0.40106350  0.35672948     0.15100
H813        H  0.31922635  0.44861003  0.17963725     0.46900
H814        H  0.23331593  0.55542030  0.28646194     0.42300
H815        H  0.15156778  0.41322940  0.41697224     0.45700
H816        H  0.35754183  0.45311478  0.37977933     0.37200
C817        C  0.61668577  0.70182850  0.84381440    -0.27000
C818        C  0.56982688  0.70841117  0.85105736     0.02600
C819        C  0.54458310  0.74537995  0.83035309     0.30700
C820        C  0.56576292  0.77465232  0.80212709    -0.18800
C821        C  0.61219645  0.76759752  0.79363069    -0.28200
C822        C  0.63780883  0.73092927  0.81475252     0.44700
C823        C  0.54517685  0.67551380  0.87736755     0.05900
O824        O  0.49841515  0.75162927  0.83589730    -0.56800
H825        H  0.54488548  0.80081250  0.78420497     0.18800
O826        O  0.68215386  0.72082981  0.80410816    -0.63500
H827        H  0.63619211  0.67291220  0.85896715     0.17300
C828        C  0.51957265  0.64070126  0.85634215     0.29500
C829        C  0.48303753  0.62166531  0.87713044    -0.24400
C830        C  0.47189170  0.63664868  0.91902321    -0.23600
C831        C  0.50077249  0.66768277  0.94174838     0.41000
C832        C  0.53710724  0.68693206  0.92077448    -0.26100
O833        O  0.52796038  0.62744549  0.81439105    -0.58000
H834        H  0.46125097  0.59775733  0.85928334     0.16600
O835        O  0.48981232  0.68463739  0.98186279    -0.59400
H836        H  0.55611719  0.71420118  0.93696656     0.15100
H837        H  0.70156145  0.73525723  0.82747572     0.46900
H838        H  0.51291882  0.65194856  0.79541257     0.42300
H839        H  0.51133811  0.66807557  0.00304588     0.45700
H840        H  0.48314587  0.73626747  0.81040551     0.37200
C841        C  0.28253596  0.68508348  0.05428462    -0.27000
C842        C  0.30194497  0.72807311  0.06512706     0.02600
C843        C  0.34698448  0.73551507  0.05243303     0.30700
C844        C  0.37108094  0.70128368  0.02944293    -0.18800
C845        C  0.35032087  0.66032009  0.01587601    -0.28200
C846        C  0.30579443  0.65208167  0.02867071     0.44700
C847        C  0.27501735  0.76533949  0.08839080     0.05900
O848        O  0.36674605  0.77751230  0.05937293    -0.56800
H849        H  0.40449495  0.70908612  0.01814026     0.18800
O850        O  0.28345760  0.61381776  0.01323282    -0.63500
H851        H  0.24851018  0.67767872  0.06414396     0.17300
C852        C  0.22775510  0.77509847  0.07814722     0.29500
C853        C  0.20288844  0.80779294  0.10282635    -0.24400
C854        C  0.22495594  0.83349732  0.13597851    -0.23600
C855        C  0.27274952  0.82692404  0.14352059     0.41000
C856        C  0.29693404  0.79225085  0.12104796    -0.26100
O857        O  0.20535476  0.75265455  0.04436451    -0.58000
H858        H  0.16608506  0.81213157  0.09684164     0.16600
O859        O  0.29575043  0.85293367  0.17450232    -0.59400
H860        H  0.33282920  0.78569017  0.13035581     0.15100
H861        H  0.28271334  0.59262900  0.03855563     0.46900
H862        H  0.20362115  0.77503985  0.01980458     0.42300
H863        H  0.29971508  0.83283214  0.20069403     0.45700
H864        H  0.36170991  0.79454983  0.03140761     0.37200
C865        C  0.72303203  0.68532376  0.02465167    -0.27000
C866        C  0.75373840  0.68619967  0.06157670     0.02600
C867        C  0.75878013  0.64605099  0.08795805     0.30700
C868        C  0.73557885  0.60587922  0.07614755    -0.18800
C869        C  0.70894710  0.60342301  0.03681509    -0.28200
C870        C  0.70099122  0.64434112  0.01202212     0.44700
C871        C  0.78532370  0.72569465  0.06907188     0.05900
O872        O  0.78971314  0.64399056  0.12312852    -0.56800
H873        H  0.74187160  0.57504859  0.09601478     0.18800
O874        O  0.67598603  0.64342377  0.97301312    -0.63500
H875        H  0.71824597  0.71571423  0.00399799     0.17300
C876        C  0.81254326  0.74043481  0.03536909     0.29500
C877        C  0.85042921  0.76771819  0.04510421    -0.24400
C878        C  0.86393048  0.77791010  0.08847368    -0.23600
C879        C  0.83314591  0.76953832  0.12125936     0.41000
C880        C  0.79406031  0.74360604  0.11138195    -0.26100
O881        O  0.80720557  0.72220472  0.99417379    -0.58000
H882        H  0.87373432  0.77390953  0.01952900     0.16600
O883        O  0.84451226  0.77998087  0.16399153    -0.59400
H884        H  0.77296674  0.73386825  0.13765262     0.15100
H885        H  0.64529642  0.65699203  0.97931375     0.46900
H886        H  0.79400064  0.74812352  0.97578159     0.42300
H887        H  0.82954772  0.81088837  0.16904285     0.45700
H888        H  0.81951657  0.63460251  0.11095394     0.37200
C889        C  0.70467874  0.46580264  0.85454521    -0.27000
C890        C  0.73929824  0.49614684  0.84391906     0.02600
C891        C  0.74483160  0.53650408  0.87002223     0.30700
C892        C  0.71868963  0.54411704  0.90655008    -0.18800
C893        C  0.68842484  0.51092939  0.91992123    -0.28200
C894        C  0.67997804  0.47267109  0.89249812     0.44700
C895        C  0.77358531  0.48331089  0.81020536     0.05900
O896        O  0.77889054  0.56669879  0.86301075    -0.56800
H897        H  0.72660878  0.57326593  0.92767948     0.18800
O898        O  0.65023920  0.43994746  0.90442814    -0.63500
H899        H  0.69822643  0.43535000  0.83473439     0.17300
C900        C  0.79462404  0.43816286  0.80865322     0.29500
C901        C  0.83626522  0.43085884  0.78824943    -0.24400
C902        C  0.85824705  0.46794220  0.76980507    -0.23600
C903        C  0.83448525  0.51126272  0.76614568     0.41000
C904        C  0.79184394  0.51824498  0.78485605    -0.26100
O905        O  0.77727925  0.40155818  0.83004733    -0.58000
H906        H  0.85402086  0.39721491  0.79151353     0.16600
O907        O  0.85474186  0.54825092  0.74824716    -0.59400
H908        H  0.77529923  0.55254089  0.78303843     0.15100
H909        H  0.62217239  0.44575609  0.88537872     0.46900
H910        H  0.78980804  0.40384490  0.86059107     0.42300
H911        H  0.87540291  0.55995052  0.77202447     0.45700
H912        H  0.80653820  0.55351515  0.87934186     0.37200
C913        C  0.45432310  0.43419668  0.81515488    -0.27000
C914        C  0.42177204  0.40001548  0.80722183     0.02600
C915        C  0.43004379  0.35578508  0.82634388     0.30700
C916        C  0.47043322  0.34620540  0.85210325    -0.18800
C917        C  0.50323437  0.38010821  0.85956185    -0.28200
C918        C  0.49472112  0.42445630  0.84111042     0.44700
C919        C  0.38052444  0.40945121  0.77718730     0.05900
O920        O  0.40073620  0.32056671  0.81691063    -0.56800
H921        H  0.47759696  0.31127630  0.86426833     0.18800
O922        O  0.52670457  0.45784679  0.84686288    -0.63500
H923        H  0.44885057  0.46821176  0.80041788     0.17300
C924        C  0.33587272  0.40578262  0.79186222     0.29500
C925        C  0.29782549  0.40753142  0.76193481    -0.24400
C926        C  0.30327445  0.41279248  0.71705525    -0.23600
C927        C  0.34753323  0.41978208  0.70261371     0.41000
C928        C  0.38574564  0.41826718  0.73265403    -0.26100
O929        O  0.32922145  0.40030324  0.83546497    -0.58000
H930        H  0.26394503  0.40272676  0.77365733     0.16600
O931        O  0.35430596  0.42388487  0.65894287    -0.59400
H932        H  0.41980463  0.42132056  0.72075882     0.15100
H933        H  0.54450241  0.45659444  0.82019322     0.46900
H934        H  0.31769586  0.36857285  0.83841716     0.42300
H935        H  0.35952326  0.45729546  0.65437194     0.45700
H936        H  0.38656776  0.31369081  0.84474244     0.37200
C937        C  0.51878514  0.27286155  0.65094152    -0.27000
C938        C  0.55378803  0.25847085  0.68140434     0.02600
C939        C  0.58799825  0.22580038  0.66875625     0.30700
C940        C  0.58734503  0.20906881  0.62580266    -0.18800
C941        C  0.55358571  0.22545351  0.59520015    -0.28200
C942        C  0.51899711  0.25711200  0.60793611     0.44700
C943        C  0.55561592  0.27953620  0.72548362     0.05900
O944        O  0.62293442  0.21132360  0.69771853    -0.56800
H945        H  0.61415890  0.18488548  0.61584446     0.18800
O946        O  0.48557556  0.27312841  0.57813168    -0.63500
H947        H  0.49178502  0.29720554  0.66025683     0.17300
C948        C  0.55513792  0.32826478  0.73097088     0.29500
C949        C  0.56136881  0.34736982  0.77275499    -0.24400
C950        C  0.56739139  0.31840682  0.80925097    -0.23600
C951        C  0.56541439  0.26998053  0.80404438     0.41000
C952        C  0.55954912  0.25082431  0.76237370    -0.26100
O953        O  0.55126891  0.35730930  0.69552892    -0.58000
H954        H  0.56292152  0.38469271  0.77649667     0.16600
O955        O  0.57016114  0.24109569  0.83955387    -0.59400
H956        H  0.55873983  0.21341023  0.75878773     0.15100
H957        H  0.49463160  0.30472542  0.57025836     0.46900
H958        H  0.51966169  0.37122781  0.69553043     0.42300
H959        H  0.53838659  0.23491848  0.84724015     0.45700
H960        H  0.65055792  0.22679895  0.68835780     0.37200
C961        C  0.63399783  0.56577615  0.39789455    -0.27000
C962        C  0.61832727  0.52382997  0.38038833     0.02600
C963        C  0.64559099  0.48280697  0.38794919     0.30700
C964        C  0.68842099  0.48456194  0.41126299    -0.18800
C965        C  0.70415020  0.52667998  0.42862814    -0.28200
C966        C  0.67608341  0.56733265  0.42202338     0.44700
C967        C  0.57271594  0.52362427  0.35584558     0.05900
O968        O  0.63138352  0.44116442  0.37135162    -0.56800
H969        H  0.70978091  0.45311639  0.41476548     0.18800
O970        O  0.68973948  0.60909354  0.43877539    -0.63500
H971        H  0.61320284  0.59751529  0.39316283     0.17300
C972        C  0.53526148  0.50243911  0.37365180     0.29500
C973        C  0.49137265  0.50695091  0.35287619    -0.24400
C974        C  0.48358359  0.53257663  0.31415615    -0.23600
C975        C  0.52120802  0.55268578  0.29547657     0.41000
C976        C  0.56530964  0.54822808  0.31633868    -0.26100
O977        O  0.54088647  0.47874627  0.41234468    -0.58000
H978        H  0.46273729  0.49165767  0.36786215     0.16600
O979        O  0.51492548  0.57833748  0.25795613    -0.59400
H980        H  0.59362013  0.56504342  0.30224794     0.15100
H981        H  0.68030543  0.60942616  0.46936726     0.46900
H982        H  0.52990410  0.50076577  0.43481139     0.42300
H983        H  0.50948604  0.61083776  0.26773186     0.45700
H984        H  0.62222967  0.42334470  0.39689088     0.37200
C985        C  0.44390328  0.64781836  0.40681056    -0.27000
C986        C  0.42303121  0.63243021  0.44404673     0.02600
C987        C  0.39459171  0.59393345  0.44062862     0.30700
C988        C  0.38864995  0.57056640  0.40070412    -0.18800
C989        C  0.41042062  0.58551540  0.36389821    -0.28200
C990        C  0.43682374  0.62533268  0.36673718     0.44700
C991        C  0.43004697  0.65791204  0.48576835     0.05900
O992        O  0.37216922  0.57922257  0.47596203    -0.56800
H993        H  0.36694710  0.54088580  0.39839479     0.18800
O994        O  0.45447843  0.64350534  0.33018979    -0.63500
H995        H  0.46461153  0.67826163  0.40858908     0.17300
C996        C  0.47448504  0.66329072  0.50481657     0.29500
C997        C  0.48044067  0.68840729  0.54368239    -0.24400
C998        C  0.44252223  0.70782268  0.56445029    -0.23600
C999        C  0.39819460  0.70304880  0.54512899     0.41000
C1000       C  0.39217559  0.67801176  0.50622557    -0.26100
O1001       O  0.51217184  0.64304168  0.48637608    -0.58000
H1002       H  0.51457108  0.69106506  0.55879961     0.16600
O1003       O  0.36046067  0.72192670  0.56443067    -0.59400
H1004       H  0.35785053  0.67449539  0.49179271     0.15100
H1005       H  0.42809404  0.65960072  0.31424503     0.46900
H1006       H  0.51229160  0.60981089  0.49479784     0.42300
H1007       H  0.36266159  0.75605850  0.56159022     0.45700
H1008       H  0.39367009  0.55625916  0.49091507     0.37200
loop_ 
_geom_bond_atom_site_label_1 
_geom_bond_atom_site_label_2 
_geom_bond_distance 
_geom_bond_site_symmetry_2 
_ccdc_geom_bond_type 
N1            C5   1.360       .  A
N1            C2   1.358       .  A
N1          C974   1.450       .  S
C2            C3   1.378       .  A
C2          C989   1.474       .  S
C3            C4   1.373       .  A
C3            H6   1.080       .  S
C4            C5   1.384       .  A
C4            H7   1.083       .  S
C5           C71   1.472       .  S
N8           C12   1.363       .  A
N8            C9   1.357       .  A
N8          C917   1.444       .  S
C9           C10   1.378       .  A
C9          C950   1.472       .  S
C10          C11   1.368       .  A
C10          H13   1.082       .  S
C11          C12   1.386       .  A
C11          H14   1.083       .  S
C12          C66   1.476       .  S
N15          C19   1.368   1_556  A
N15          C16   1.369       .  A
N15          C65   1.459   1_556  S
C16          C17   1.389       .  A
C16         C893   1.489       .  S
C17          C18   1.364   1_556  A
C17          H20   1.083       .  S
C18          C19   1.379       .  A
C18          H21   1.082       .  S
C19         C869   1.495       .  S
N22          C26   1.359       .  A
N22          C23   1.361       .  A
N22          C67   1.447   1_556  S
C23          C24   1.385       .  A
C23         C845   1.477   1_556  S
C24          C25   1.371       .  A
C24          H27   1.083       .  S
C25          C26   1.380       .  A
C25          H28   1.083       .  S
C26         C830   1.483       .  S
N29          C33   1.371       .  A
N29          C30   1.370       .  A
N29          C79   1.455       .  S
C30          C31   1.383       .  A
C30         C797   1.497       .  S
C31          C32   1.362       .  A
C31          H34   1.083       .  S
C32          C33   1.381       .  A
C32          H35   1.083       .  S
C33         C773   1.492       .  S
N36          C40   1.356       .  A
N36          C37   1.368       .  A
N36          C86   1.446       .  S
C37          C38   1.384       .  A
C37         C749   1.489       .  S
C38          C39   1.371       .  A
C38          H41   1.083       .  S
C39          C40   1.380       .  A
C39          H42   1.082       .  S
C40         C725   1.479       .  S
Zr43         O44   2.442   1_554  S
Zr43         O45   2.492   1_554  S
Zr43         O46   2.435   1_554  S
Zr43         O49   2.445   1_554  S
Zr43         O51   2.392       .  S
Zr43         O52   2.381       .  S
Zr43         O53   2.424       .  S
Zr43         O54   2.408       .  S
O44         H100   0.990       .  S
O44         H108   0.990       .  S
O45          C65   1.295   1_556  A
O46          C67   1.286   1_556  A
O47         Zr57   2.423   1_556  S
O47          C66   1.285       .  A
O48         Zr56   2.457       .  S
O48          C67   1.288       .  A
O49          C66   1.283       .  A
O50         Zr58   2.418       .  S
O50          C65   1.284       .  A
O51         Zr56   2.402       .  S
O51         Zr58   2.378       .  S
O52         Zr57   2.370       .  S
O52         Zr58   2.379       .  S
O52          H87   0.965       .  S
O53         Zr56   2.400       .  S
O53         Zr73   2.407       .  S
O53          H90   0.966       .  S
O54         Zr57   2.381       .  S
O54         Zr73   2.403       .  S
Zr55         O80   2.442       .  S
Zr55         O74   2.468       .  S
Zr55         O82   2.477       .  S
Zr55         O70   2.429       .  S
Zr55         O61   2.402       .  S
Zr55         O62   2.425       .  S
Zr55         O63   2.384       .  S
Zr55         O64   2.377       .  S
Zr56         O75   2.440       .  S
Zr56         O68   2.439       .  S
Zr56         O69   2.445       .  S
Zr56         O62   2.400       .  S
Zr56         O63   2.396       .  S
Zr57         O59   2.433       .  S
Zr57         O81   2.438       .  S
Zr57         O83   2.405       .  S
Zr57         O61   2.401       .  S
Zr57         O64   2.404       .  S
Zr58         O84   2.437       .  S
Zr58         O85   2.437       .  S
Zr58         O60   2.436       .  S
Zr58         O61   2.402       .  S
Zr58         O62   2.388       .  S
O59          H96   0.990       .  S
O60          H91   0.990       .  S
O60         H105   0.990       .  S
O62          H88   0.966       .  S
O63         Zr73   2.366       .  S
O64         Zr73   2.386       .  S
O64          H89   0.966       .  S
O68         H104   0.990       .  S
O69          C71   1.287       .  A
O70          C71   1.281       .  A
O72         Zr73   2.437   1_556  S
O72         H101   0.990       .  S
Zr73         O76   2.438       .  S
Zr73         O77   2.439       .  S
Zr73         O78   2.454       .  S
O74          C79   1.291       .  A
O75          H92   0.990       .  S
O75         H107   0.990       .  S
O76          H93   0.990       .  S
O77          H97   0.990       .  S
O77         H106   0.991       .  S
O78          C79   1.286       .  A
O80          H99   0.989       .  S
O80         H103   0.990       .  S
O81          H95   0.990       .  S
O81         H102   0.990       .  S
O82          C86   1.295       .  A
O83          C86   1.275       .  A
O84          H94   0.990       .  S
O85          H98   0.990       .  S
N109        C113   1.351       .  A
N109        C110   1.354       .  A
N109        C941   1.429       .  S
C110        C111   1.382       .  A
C110        C710   1.486       .  S
C111        C112   1.381       .  A
C111        H114   1.082       .  S
C112        C113   1.384       .  A
C112        H115   1.083       .  S
C113        C173   1.471       .  S
N116        C120   1.356       .  A
N116        C117   1.354       .  A
N116        C998   1.438       .  S
C117        C118   1.378       .  A
C117        C677   1.477       .  S
C118        C119   1.380       .  A
C118        H121   1.082       .  S
C119        C120   1.388       .  A
C119        H122   1.083       .  S
C120        C187   1.472       .  S
N123        C127   1.360       .  A
N123        C124   1.364       .  A
N123        C653   1.451       .  S
C124        C125   1.380       .  A
C124        C821   1.475       .  S
C125        C126   1.362       .  A
C125        H128   1.083       .  S
C126        C127   1.379       .  A
C126        H129   1.082       .  S
C127        C179   1.470       .  S
N130        C134   1.364       .  A
N130        C131   1.367       .  A
N130        C605   1.441       .  S
C131        C132   1.380       .  A
C131        C629   1.493       .  S
C132        C133   1.369       .  A
C132        H135   1.082       .  S
C133        C134   1.385       .  A
C133        H136   1.083       .  S
C134        C194   1.490       .  S
N137        C141   1.360       .  A
N137        C138   1.361       .  A
N137        C590   1.445       .  S
C138        C139   1.380       .  A
C138        C734   1.483       .  S
C139        C140   1.364       .  A
C139        H142   1.081       .  S
C140        C141   1.380       .  A
C140        H143   1.075       .  S
C141        C174   1.476       .  S
N144        C148   1.366       .  A
N144        C145   1.362       .  A
N144        C542   1.447       .  S
C145        C146   1.379       .  A
C145        C557   1.485       .  S
C146        C147   1.374       .  A
C146        H149   1.082       .  S
C147        C148   1.387       .  A
C147        H150   1.083       .  S
C148        C175   1.490       .  S
Zr151       O152   2.438       .  S
Zr151       O153   2.464       .  S
Zr151       O154   2.460       .  S
Zr151       O157   2.426       .  S
Zr151       O159   2.395       .  S
Zr151       O160   2.391       .  S
Zr151       O161   2.417   1_545  S
Zr151       O162   2.420   1_545  S
O152        H208   0.990       .  S
O152        H216   0.989       .  S
O153        C173   1.287       .  A
O154        C175   1.284       .  A
O155       Zr165   2.457   1_545  S
O155        C174   1.282       .  A
O156       Zr164   2.445   1_545  S
O156        C175   1.288       .  A
O157        C174   1.277       .  A
O158       Zr166   2.409       .  S
O158        C173   1.278       .  A
O159       Zr164   2.400   1_545  S
O159       Zr166   2.384       .  S
O160       Zr165   2.397   1_545  S
O160       Zr166   2.384       .  S
O160        H195   0.965       .  S
O161       Zr164   2.408       .  S
O161       Zr181   2.397       .  S
O161        H198   0.964       .  S
O162       Zr165   2.388       .  S
O162       Zr181   2.390       .  S
Zr163       O188   2.441       .  S
Zr163       O182   2.467       .  S
Zr163       O190   2.473       .  S
Zr163       O178   2.416       .  S
Zr163       O169   2.388       .  S
Zr163       O170   2.429       .  S
Zr163       O171   2.377       .  S
Zr163       O172   2.401       .  S
Zr164       O183   2.446       .  S
Zr164       O176   2.434   1_565  S
Zr164       O177   2.453       .  S
Zr164       O170   2.400       .  S
Zr164       O171   2.392       .  S
Zr165       O167   2.435       .  S
Zr165       O189   2.439       .  S
Zr165       O191   2.425       .  S
Zr165       O169   2.392       .  S
Zr165       O172   2.402       .  S
Zr166       O192   2.433       .  S
Zr166       O193   2.438   1_545  S
Zr166       O168   2.443       .  S
Zr166       O169   2.386   1_545  S
Zr166       O170   2.390   1_545  S
O167        H204   0.990       .  S
O168        H199   0.989       .  S
O168        H213   0.988       .  S
O170        H196   0.965       .  S
O171       Zr181   2.373       .  S
O172       Zr181   2.390       .  S
O172        H197   0.966       .  S
O176        H212   0.990   1_545  S
O177        C179   1.286       .  A
O178        C179   1.281       .  A
O180       Zr181   2.440       .  S
O180        H209   0.990       .  S
Zr181       O184   2.435       .  S
Zr181       O185   2.446       .  S
Zr181       O186   2.410       .  S
O182        C187   1.287       .  A
O183        H200   0.990       .  S
O183        H215   0.990       .  S
O184        H201   0.990       .  S
O185        H205   0.990       .  S
O185        H214   0.988       .  S
O186        C187   1.278       .  A
O188        H207   0.989       .  S
O188        H211   0.990       .  S
O189        H203   0.990       .  S
O189        H210   0.990   1_565  S
O190        C194   1.289       .  A
O191        C194   1.284       .  A
O192        H202   0.990       .  S
O193        H206   0.990       .  S
N217        C221   1.369       .  A
N217        C218   1.364       .  A
N217        C283   1.455       .  S
C218        C219   1.383       .  A
C218        C782   1.491   1_556  S
C219        C220   1.365       .  A
C219        H222   1.082       .  S
C220        C221   1.380       .  A
C220        H223   1.081       .  S
C221        C518   1.499       .  S
N224        C228   1.368       .  A
N224        C225   1.364       .  A
N224        C287   1.447       .  S
C225        C226   1.382       .  A
C225        C581   1.485       .  S
C226        C227   1.360       .  A
C226        H229   1.083       .  S
C227        C228   1.382       .  A
C227        H230   1.083       .  S
C228        C854   1.483       .  S
N231        C235   1.365   1_545  A
N231        C232   1.368       .  A
N231        C295   1.450       .  S
C232        C233   1.384   1_545  A
C232        C485   1.496       .  S
C233        C234   1.367       .  A
C233        H236   1.083   1_565  S
C234        C235   1.380       .  A
C234        H237   1.082       .  S
C235        C638   1.496   1_455  S
N238        C242   1.367       .  A
N238        C239   1.363       .  A
N238        C302   1.449       .  S
C239        C240   1.383       .  A
C239        C878   1.484       .  S
C240        C241   1.361       .  A
C240        H243   1.083       .  S
C241        C242   1.381       .  A
C241        H244   1.082       .  S
C242        C461   1.492       .  S
N245        C249   1.370       .  A
N245        C246   1.369       .  A
N245        C282   1.453       .  S
C246        C247   1.380       .  A
C246        C662   1.485   1_545  S
C247        C248   1.360       .  A
C247        H250   1.083       .  S
C248        C249   1.385       .  A
C248        H251   1.081       .  S
C249        C758   1.505   1_556  S
N252        C256   1.366       .  A
N252        C253   1.369   1_455  A
N252        C281   1.451       .  S
C253        C254   1.381       .  A
C253        C437   1.495       .  S
C254        C255   1.364       .  A
C254        H257   1.083       .  S
C255        C256   1.387   1_655  A
C255        H258   1.080   1_565  S
C256        C566   1.512   1_565  S
Zr259       O260   2.446   1_554  S
Zr259       O261   2.468   1_644  S
Zr259       O262   2.437   1_654  S
Zr259       O265   2.448   1_554  S
Zr259       O267   2.391   1_645  S
Zr259       O268   2.379   1_545  S
Zr259       O269   2.422   1_655  S
Zr259       O270   2.408       .  S
O260        H316   0.991       .  S
O260        H324   0.990       .  S
O261        C281   1.292       .  A
O262        C283   1.284       .  A
O263       Zr273   2.476       .  S
O263        C282   1.290   1_564  A
O264       Zr272   2.484       .  S
O264        C283   1.297   1_554  A
O265        C282   1.289       .  A
O266       Zr274   2.438   1_556  S
O266        C281   1.282       .  A
O267       Zr272   2.413   1_565  S
O267       Zr274   2.378       .  S
O268       Zr273   2.405       .  S
O268       Zr274   2.391   1_655  S
O268        H303   0.966   1_554  S
O269       Zr272   2.407       .  S
O269       Zr289   2.406   1_455  S
O269        H306   0.966       .  S
O270       Zr273   2.396   1_545  S
O270       Zr289   2.407       .  S
Zr271       O296   2.445       .  S
Zr271       O290   2.462       .  S
Zr271       O298   2.437   1_455  S
Zr271       O286   2.431       .  S
Zr271       O277   2.400   1_455  S
Zr271       O278   2.425       .  S
Zr271       O279   2.377   1_565  S
Zr271       O280   2.380   1_455  S
Zr272       O291   2.436       .  S
Zr272       O284   2.437   1_545  S
Zr272       O285   2.492   1_545  S
Zr272       O278   2.412   1_545  S
Zr272       O279   2.409       .  S
Zr273       O275   2.437       .  S
Zr273       O297   2.440       .  S
Zr273       O299   2.463       .  S
Zr273       O277   2.389       .  S
Zr273       O280   2.411       .  S
Zr274       O300   2.434   1_454  S
Zr274       O301   2.439       .  S
Zr274       O276   2.444   1_554  S
Zr274       O277   2.392   1_455  S
Zr274       O278   2.397       .  S
O275        H312   0.990       .  S
O276        H307   0.990   1_556  S
O276        H321   0.990       .  S
O278        H304   0.965       .  S
O279       Zr289   2.385   1_455  S
O280       Zr289   2.389   1_565  S
O280        H305   0.966       .  S
O284        H320   0.990   1_565  S
O285        C287   1.293       .  A
O286        C287   1.284       .  A
O288       Zr289   2.437       .  S
O288        H317   0.990       .  S
Zr289       O292   2.435   1_655  S
Zr289       O293   2.437       .  S
Zr289       O294   2.441   1_655  S
O290        C295   1.290   1_565  A
O291        H308   0.990       .  S
O291        H323   0.990       .  S
O292        H309   0.990       .  S
O293        H313   0.990       .  S
O293        H322   0.989       .  S
O294        C295   1.281       .  A
O296        H315   0.990       .  S
O296        H319   0.990       .  S
O297        H311   0.990       .  S
O297        H318   0.990   1_554  S
O298        C302   1.286       .  A
O299        C302   1.292       .  A
O300        H310   0.991       .  S
O301        H314   0.990       .  S
N325        C329   1.362       .  A
N325        C326   1.361       .  A
N325        C686   1.432       .  S
C326        C327   1.379       .  A
C326        C926   1.492       .  S
C327        C328   1.375       .  A
C327        H330   1.082       .  S
C328        C329   1.386       .  A
C328        H331   1.083       .  S
C329        C395   1.485       .  S
N332        C336   1.366       .  A
N332        C333   1.366       .  A
N332        C701   1.440       .  S
C333        C334   1.381       .  A
C333        C965   1.498       .  S
C334        C335   1.372       .  A
C334        H337   1.082       .  S
C335        C336   1.386       .  A
C335        H338   1.082       .  S
C336        C390   1.488       .  S
N339        C343   1.372       .  A
N339        C340   1.361       .  A
N339        C446   1.455       .  S
C340        C341   1.380       .  A
C340        C614   1.484       .  S
C341        C342   1.367       .  A
C341        H344   1.083       .  S
C342        C343   1.386       .  A
C342        H345   1.083       .  S
C343        C389   1.494       .  S
N346        C350   1.369       .  A
N346        C347   1.362       .  A
N346        C494   1.451       .  S
C347        C348   1.378       .  A
C347        C533   1.487       .  S
C348        C349   1.368       .  A
C348        H351   1.082       .  S
C349        C350   1.387       .  A
C349        H352   1.083       .  S
C350        C403   1.493       .  S
N353        C357   1.364       .  A
N353        C354   1.366       .  A
N353        C391   1.452       .  S
C354        C355   1.379       .  A
C354        C509   1.493       .  S
C355        C356   1.367       .  A
C355        H358   1.082       .  S
C356        C357   1.386       .  A
C356        H359   1.083       .  S
C357        C902   1.486       .  S
N360        C364   1.368       .  A
N360        C361   1.369       .  A
N360        C410   1.458       .  S
C361        C362   1.379       .  A
C361        C470   1.496       .  S
C362        C363   1.365       .  A
C362        H365   1.083       .  S
C363        C364   1.384       .  A
C363        H366   1.083       .  S
C364        C806   1.490       .  S
Zr367       O368   2.439       .  S
Zr367       O369   2.469       .  S
Zr367       O370   2.473       .  S
Zr367       O373   2.466       .  S
Zr367       O375   2.381       .  S
Zr367       O376   2.437       .  S
Zr367       O377   2.421       .  S
Zr367       O378   2.450       .  S
O368        H424   0.990       .  S
O368        H432   0.990       .  S
O369        C389   1.295       .  A
O370        C391   1.293       .  A
O371       Zr381   2.403       .  S
O371        C390   1.266       .  A
O372       Zr380   2.425   1_655  S
O372        C391   1.287       .  A
O373        C390   1.274       .  A
O374       Zr382   2.442   1_655  S
O374        C389   1.281       .  A
O375       Zr380   2.386   1_655  S
O375       Zr382   2.383   1_655  S
O376       Zr381   2.411       .  S
O376       Zr382   2.376   1_655  S
O376        H411   0.967       .  S
O377       Zr380   2.391   1_655  S
O377       Zr397   2.417   1_655  S
O377        H414   0.966       .  S
O378       Zr381   2.396       .  S
O378       Zr397   2.401   1_655  S
Zr379       O404   2.434       .  S
Zr379       O398   2.448       .  S
Zr379       O406   2.481       .  S
Zr379       O394   2.476       .  S
Zr379       O385   2.422       .  S
Zr379       O386   2.420       .  S
Zr379       O387   2.379       .  S
Zr379       O388   2.386       .  S
Zr380       O399   2.440       .  S
Zr380       O392   2.435       .  S
Zr380       O393   2.419       .  S
Zr380       O386   2.394       .  S
Zr380       O387   2.381       .  S
Zr381       O383   2.438       .  S
Zr381       O405   2.441       .  S
Zr381       O407   2.441   1_655  S
Zr381       O385   2.394   1_655  S
Zr381       O388   2.388   1_655  S
Zr382       O408   2.442   1_455  S
Zr382       O409   2.436       .  S
Zr382       O384   2.446       .  S
Zr382       O385   2.419       .  S
Zr382       O386   2.409       .  S
O383        H420   0.990       .  S
O384        H415   0.990       .  S
O384        H429   0.990       .  S
O386        H412   0.966       .  S
O387       Zr397   2.367       .  S
O388       Zr397   2.384       .  S
O388        H413   0.966       .  S
O392        H428   0.990       .  S
O393        C395   1.283       .  A
O394        C395   1.292       .  A
O396       Zr397   2.437   1_655  S
O396        H425   0.990       .  S
Zr397       O400   2.437       .  S
Zr397       O401   2.440   1_455  S
Zr397       O402   2.444       .  S
O398        C403   1.290       .  A
O399        H416   0.990       .  S
O399        H431   0.990       .  S
O400        H417   0.990       .  S
O401        H421   0.990   1_655  S
O401        H430   0.990       .  S
O402        C403   1.283       .  A
O404        H423   0.990       .  S
O404        H427   0.990       .  S
O405        H419   0.990       .  S
O405        H426   0.990       .  S
O406        C410   1.294       .  A
O407        C410   1.289       .  A
O408        H418   0.990       .  S
O409        H422   0.990       .  S
C433        C434   1.406       .  A
C433        C438   1.410   1_655  A
C433        H443   1.083   1_655  S
C434        C435   1.412       .  A
C434        C439   1.501       .  S
C435        C436   1.407       .  A
C435        O440   1.373       .  S
C436        C437   1.406       .  A
C436        H441   1.082       .  S
C437        C438   1.414   1_655  A
C438        O442   1.371       .  S
C439        C444   1.414       .  A
C439        C448   1.400       .  A
O440        H456   0.992       .  S
O442        H453   0.992       .  S
C444        C445   1.413       .  A
C444        O449   1.372       .  S
C445        C446   1.409       .  A
C445        H450   1.078       .  S
C446        C447   1.412       .  A
C447        C448   1.404       .  A
C447        O451   1.368       .  S
C448        H452   1.084       .  S
O449        H454   0.992       .  S
O451        H455   0.991       .  S
C457        C458   1.403       .  A
C457        C462   1.401       .  A
C457        H467   1.084       .  S
C458        C459   1.412   1_455  A
C458        C463   1.496       .  S
C459        C460   1.411       .  A
C459        O464   1.372       .  S
C460        C461   1.406       .  A
C460        H465   1.083       .  S
C461        C462   1.412   1_655  A
C462        O466   1.373       .  S
C463        C468   1.412   1_455  A
C463        C472   1.407       .  A
O464        H480   0.992       .  S
O466        H477   0.992       .  S
C468        C469   1.404       .  A
C468        O473   1.372       .  S
C469        C470   1.407   1_655  A
C469        H474   1.084       .  S
C470        C471   1.412       .  A
C471        C472   1.408       .  A
C471        O475   1.370       .  S
C472        H476   1.083       .  S
O473        H478   0.992       .  S
O475        H479   0.991       .  S
C481        C482   1.408       .  A
C481        C486   1.407       .  A
C481        H491   1.084       .  S
C482        C483   1.411       .  A
C482        C487   1.506       .  S
C483        C484   1.412       .  A
C483        O488   1.372   1_455  S
C484        C485   1.407       .  A
C484        H489   1.083   1_455  S
C485        C486   1.413       .  A
C486        O490   1.372       .  S
C487        C492   1.417       .  A
C487        C496   1.405       .  A
O488        H504   0.992       .  S
O490        H501   0.992       .  S
C492        C493   1.412       .  A
C492        O497   1.371       .  S
C493        C494   1.402       .  A
C493        H498   1.083       .  S
C494        C495   1.415       .  A
C495        C496   1.406       .  A
C495        O499   1.371       .  S
C496        H500   1.084       .  S
O497        H502   0.992       .  S
O499        H503   0.992       .  S
C505        C506   1.406       .  A
C505        C510   1.404       .  A
C505        H515   1.084       .  S
C506        C507   1.413   1_455  A
C506        C511   1.501       .  S
C507        C508   1.412       .  A
C507        O512   1.371       .  S
C508        C509   1.407       .  A
C508        H513   1.083       .  S
C509        C510   1.409   1_655  A
C510        O514   1.371       .  S
C511        C516   1.407       .  A
C511        C520   1.409       .  A
O512        H528   0.992       .  S
O514        H525   0.992       .  S
C516        C517   1.406       .  A
C516        O521   1.371       .  S
C517        C518   1.408       .  A
C517        H522   1.078       .  S
C518        C519   1.412       .  A
C519        C520   1.410       .  A
C519        O523   1.371       .  S
C520        H524   1.084       .  S
O521        H526   0.992       .  S
O523        H527   0.992       .  S
C529        C530   1.404       .  A
C529        C534   1.406       .  A
C529        H539   1.084       .  S
C530        C531   1.410       .  A
C530        C535   1.493       .  S
C531        C532   1.409       .  A
C531        O536   1.371       .  S
C532        C533   1.405       .  A
C532        H537   1.084       .  S
C533        C534   1.410       .  A
C534        O538   1.372       .  S
C535        C540   1.412       .  A
C535        C544   1.404       .  A
O536        H552   0.992       .  S
O538        H549   0.991       .  S
C540        C541   1.411       .  A
C540        O545   1.371       .  S
C541        C542   1.405       .  A
C541        H546   1.083       .  S
C542        C543   1.409       .  A
C543        C544   1.403       .  A
C543        O547   1.371       .  S
C544        H548   1.084       .  S
O545        H550   0.992       .  S
O547        H551   0.992       .  S
C553        C554   1.407       .  A
C553        C558   1.404       .  A
C553        H563   1.084   1_545  S
C554        C555   1.416       .  A
C554        C559   1.503       .  S
C555        C556   1.409       .  A
C555        O560   1.370       .  S
C556        C557   1.400       .  A
C556        H561   1.084       .  S
C557        C558   1.409       .  A
C558        O562   1.372   1_545  S
C559        C564   1.407       .  A
C559        C568   1.408       .  A
O560        H576   0.992       .  S
O562        H573   0.992       .  S
C564        C565   1.403       .  A
C564        O569   1.372       .  S
C565        C566   1.412       .  A
C565        H570   1.080       .  S
C566        C567   1.416   1_545  A
C567        C568   1.410   1_565  A
C567        O571   1.371       .  S
C568        H572   1.083   1_545  S
O569        H574   0.992       .  S
O571        H575   0.992       .  S
C577        C578   1.404       .  A
C577        C582   1.404   1_545  A
C577        H587   1.083       .  S
C578        C579   1.407   1_545  A
C578        C583   1.483       .  S
C579        C580   1.399       .  A
C579        O584   1.372       .  S
C580        C581   1.406       .  A
C580        H585   1.084       .  S
C581        C582   1.411       .  A
C582        O586   1.371       .  S
C583        C588   1.411       .  A
C583        C592   1.398       .  A
O584        H600   0.992       .  S
O586        H597   0.992       .  S
C588        C589   1.407       .  A
C588        O593   1.371   1_545  S
C589        C590   1.404       .  A
C589        H594   1.082       .  S
C590        C591   1.413       .  A
C591        C592   1.398       .  A
C591        O595   1.372       .  S
C592        H596   1.084       .  S
O593        H598   0.992       .  S
O595        H599   0.992       .  S
C601        C602   1.403       .  A
C601        C606   1.395       .  A
C601        H611   1.084       .  S
C602        C603   1.410       .  A
C602        C607   1.484       .  S
C603        C604   1.409       .  A
C603        O608   1.371       .  S
C604        C605   1.406       .  A
C604        H609   1.083       .  S
C605        C606   1.404       .  A
C606        O610   1.371       .  S
C607        C612   1.407       .  A
C607        C616   1.401       .  A
O608        H624   0.992       .  S
O610        H621   0.992       .  S
C612        C613   1.404       .  A
C612        O617   1.369       .  S
C613        C614   1.406       .  A
C613        H618   1.084       .  S
C614        C615   1.410       .  A
C615        C616   1.401       .  A
C615        O619   1.374       .  S
C616        H620   1.084       .  S
O617        H622   0.991       .  S
O619        H623   0.992       .  S
C625        C626   1.401       .  A
C625        C630   1.405       .  A
C625        H635   1.084       .  S
C626        C627   1.410       .  A
C626        C631   1.489       .  S
C627        C628   1.406       .  A
C627        O632   1.371       .  S
C628        C629   1.404       .  A
C628        H633   1.083       .  S
C629        C630   1.417       .  A
C630        O634   1.372       .  S
C631        C636   1.407       .  A
C631        C640   1.402       .  A
O632        H648   0.992       .  S
O634        H645   0.992       .  S
C636        C637   1.406       .  A
C636        O641   1.371       .  S
C637        C638   1.411       .  A
C637        H642   1.083       .  S
C638        C639   1.411       .  A
C639        C640   1.405       .  A
C639        O643   1.370   1_565  S
C640        H644   1.084       .  S
O641        H646   0.992       .  S
O643        H647   0.991       .  S
C649        C650   1.409       .  A
C649        C654   1.405       .  A
C649        H659   1.083       .  S
C650        C651   1.414       .  A
C650        C655   1.503       .  S
C651        C652   1.404       .  A
C651        O656   1.372       .  S
C652        C653   1.408       .  A
C652        H657   1.083       .  S
C653        C654   1.408       .  A
C654        O658   1.368       .  S
C655        C660   1.413       .  A
C655        C664   1.412       .  A
O656        H672   0.992       .  S
O658        H669   0.992       .  S
C660        C661   1.403   1_565  A
C660        O665   1.372       .  S
C661        C662   1.406   1_545  A
C661        H666   1.084       .  S
C662        C663   1.406       .  A
C663        C664   1.407       .  A
C663        O667   1.371       .  S
C664        H668   1.083       .  S
O665        H670   0.992   1_565  S
O667        H671   0.992       .  S
C673        C674   1.404       .  A
C673        C678   1.402       .  A
C673        H683   1.083       .  S
C674        C675   1.414       .  A
C674        C679   1.487       .  S
C675        C676   1.399       .  A
C675        O680   1.372       .  S
C676        C677   1.397       .  A
C676        H681   1.084       .  S
C677        C678   1.409       .  A
C678        O682   1.372       .  S
C679        C684   1.413       .  A
C679        C688   1.405       .  A
O680        H696   0.992       .  S
O682        H693   0.991       .  S
C684        C685   1.401       .  A
C684        O689   1.371       .  S
C685        C686   1.402       .  A
C685        H690   1.083       .  S
C686        C687   1.402       .  A
C687        C688   1.397       .  A
C687        O691   1.371       .  S
C688        H692   1.084       .  S
O689        H694   0.992       .  S
O691        H695   0.991       .  S
C697        C698   1.406       .  A
C697        C702   1.406       .  A
C697        H707   1.083       .  S
C698        C699   1.410       .  A
C698        C703   1.492       .  S
C699        C700   1.404       .  A
C699        O704   1.372       .  S
C700        C701   1.400       .  A
C700        H705   1.083       .  S
C701        C702   1.409       .  A
C702        O706   1.372       .  S
C703        C708   1.411       .  A
C703        C712   1.407       .  A
O704        H720   0.992       .  S
O706        H717   0.992       .  S
C708        C709   1.404       .  A
C708        O713   1.371       .  S
C709        C710   1.404       .  A
C709        H714   1.083       .  S
C710        C711   1.407       .  A
C711        C712   1.404       .  A
C711        O715   1.371       .  S
C712        H716   1.084       .  S
O713        H718   0.991       .  S
O715        H719   0.991       .  S
C721        C722   1.405       .  A
C721        C726   1.396       .  A
C721        H731   1.084       .  S
C722        C723   1.407       .  A
C722        C727   1.480       .  S
C723        C724   1.401       .  A
C723        O728   1.373       .  S
C724        C725   1.405       .  A
C724        H729   1.083       .  S
C725        C726   1.404       .  A
C726        O730   1.371       .  S
C727        C732   1.410       .  A
C727        C736   1.403       .  A
O728        H744   0.992       .  S
O730        H741   0.992       .  S
C732        C733   1.395       .  A
C732        O737   1.372       .  S
C733        C734   1.401       .  A
C733        H738   1.082       .  S
C734        C735   1.411       .  A
C735        C736   1.403       .  A
C735        O739   1.375       .  S
C736        H740   1.083       .  S
O737        H742   0.992       .  S
O739        H743   0.992       .  S
C745        C746   1.407       .  A
C745        C750   1.407       .  A
C745        H755   1.083       .  S
C746        C747   1.412       .  A
C746        C751   1.501       .  S
C747        C748   1.407       .  A
C747        O752   1.371       .  S
C748        C749   1.405       .  A
C748        H753   1.084       .  S
C749        C750   1.412       .  A
C750        O754   1.372       .  S
C751        C756   1.406       .  A
C751        C760   1.410       .  A
O752        H768   0.992       .  S
O754        H765   0.992       .  S
C756        C757   1.401       .  A
C756        O761   1.372       .  S
C757        C758   1.412       .  A
C757        H762   1.082   1_554  S
C758        C759   1.414       .  A
C759        C760   1.414       .  A
C759        O763   1.372       .  S
C760        H764   1.083       .  S
O761        H766   0.992       .  S
O763        H767   0.992       .  S
C769        C770   1.410       .  A
C769        C774   1.409       .  A
C769        H779   1.083       .  S
C770        C771   1.412       .  A
C770        C775   1.503       .  S
C771        C772   1.404       .  A
C771        O776   1.372       .  S
C772        C773   1.410       .  A
C772        H777   1.083       .  S
C773        C774   1.408       .  A
C774        O778   1.372       .  S
C775        C780   1.415       .  A
C775        C784   1.408       .  A
O776        H792   0.992       .  S
O778        H789   0.992       .  S
C780        C781   1.406       .  A
C780        O785   1.372       .  S
C781        C782   1.403       .  A
C781        H786   1.083       .  S
C782        C783   1.411       .  A
C783        C784   1.404       .  A
C783        O787   1.372   1_554  S
C784        H788   1.083       .  S
O785        H790   0.992       .  S
O787        H791   0.992       .  S
C793        C794   1.408       .  A
C793        C798   1.409       .  A
C793        H803   1.083       .  S
C794        C795   1.408       .  A
C794        C799   1.499       .  S
C795        C796   1.405       .  A
C795        O800   1.371       .  S
C796        C797   1.409       .  A
C796        H801   1.083       .  S
C797        C798   1.412       .  A
C798        O802   1.370       .  S
C799        C804   1.409       .  A
C799        C808   1.408       .  A
O800        H816   0.992       .  S
O802        H813   0.991       .  S
C804        C805   1.408       .  A
C804        O809   1.370       .  S
C805        C806   1.407       .  A
C805        H810   1.082       .  S
C806        C807   1.410       .  A
C807        C808   1.406       .  A
C807        O811   1.372       .  S
C808        H812   1.084       .  S
O809        H814   0.992       .  S
O811        H815   0.991       .  S
C817        C818   1.403       .  A
C817        C822   1.407       .  A
C817        H827   1.083       .  S
C818        C819   1.406       .  A
C818        C823   1.478       .  S
C819        C820   1.394       .  A
C819        O824   1.372       .  S
C820        C821   1.401       .  A
C820        H825   1.084       .  S
C821        C822   1.411       .  A
C822        O826   1.372       .  S
C823        C828   1.409       .  A
C823        C832   1.400       .  A
O824        H840   0.992       .  S
O826        H837   0.991       .  S
C828        C829   1.401       .  A
C828        O833   1.373       .  S
C829        C830   1.405       .  A
C829        H834   1.084       .  S
C830        C831   1.411       .  A
C831        C832   1.402       .  A
C831        O835   1.371       .  S
C832        H836   1.084       .  S
O833        H838   0.992       .  S
O835        H839   0.992   1_556  S
C841        C842   1.413       .  A
C841        C846   1.408       .  A
C841        H851   1.082       .  S
C842        C843   1.415       .  A
C842        C847   1.505       .  S
C843        C844   1.399       .  A
C843        O848   1.371       .  S
C844        C845   1.399       .  A
C844        H849   1.084       .  S
C845        C846   1.406       .  A
C846        O850   1.373       .  S
C847        C852   1.418       .  A
C847        C856   1.408       .  A
O848        H864   0.992       .  S
O850        H861   0.992       .  S
C852        C853   1.409       .  A
C852        O857   1.371       .  S
C853        C854   1.401       .  A
C853        H858   1.084       .  S
C854        C855   1.409       .  A
C855        C856   1.400       .  A
C855        O859   1.373       .  S
C856        H860   1.082       .  S
O857        H862   0.992       .  S
O859        H863   0.992       .  S
C865        C866   1.410       .  A
C865        C870   1.410       .  A
C865        H875   1.083       .  S
C866        C867   1.413       .  A
C866        C871   1.501       .  S
C867        C868   1.400       .  A
C867        O872   1.372       .  S
C868        C869   1.406       .  A
C868        H873   1.083       .  S
C869        C870   1.410       .  A
C870        O874   1.371   1_554  S
C871        C876   1.412       .  A
C871        C880   1.410       .  A
O872        H888   0.992       .  S
O874        H885   0.992       .  S
C876        C877   1.401       .  A
C876        O881   1.371   1_554  S
C877        C878   1.402       .  A
C877        H882   1.084       .  S
C878        C879   1.410       .  A
C879        C880   1.408       .  A
C879        O883   1.372       .  S
C880        H884   1.083       .  S
O881        H886   0.992       .  S
O883        H887   0.991       .  S
C889        C890   1.413       .  A
C889        C894   1.410       .  A
C889        H899   1.082       .  S
C890        C891   1.419       .  A
C890        C895   1.511       .  S
C891        C892   1.400       .  A
C891        O896   1.372       .  S
C892        C893   1.403       .  A
C892        H897   1.084       .  S
C893        C894   1.406       .  A
C894        O898   1.369       .  S
C895        C900   1.418       .  A
C895        C904   1.411       .  A
O896        H912   0.992       .  S
O898        H909   0.992       .  S
C900        C901   1.404       .  A
C900        O905   1.371       .  S
C901        C902   1.402       .  A
C901        H906   1.084       .  S
C902        C903   1.406       .  A
C903        C904   1.405       .  A
C903        O907   1.368       .  S
C904        H908   1.083       .  S
O905        H910   0.992       .  S
O907        H911   0.990       .  S
C913        C914   1.407       .  A
C913        C918   1.409       .  A
C913        H923   1.083       .  S
C914        C915   1.412       .  A
C914        C919   1.496       .  S
C915        C916   1.405       .  A
C915        O920   1.373       .  S
C916        C917   1.404       .  A
C916        H921   1.083       .  S
C917        C918   1.407       .  A
C918        O922   1.371       .  S
C919        C924   1.409       .  A
C919        C928   1.408       .  A
O920        H936   0.992       .  S
O922        H933   0.991       .  S
C924        C925   1.405       .  A
C924        O929   1.373       .  S
C925        C926   1.404       .  A
C925        H930   1.084       .  S
C926        C927   1.409       .  A
C927        C928   1.411       .  A
C927        O931   1.371       .  S
C928        H932   1.084       .  S
O929        H934   0.992       .  S
O931        H935   0.991       .  S
C937        C938   1.402       .  A
C937        C942   1.394       .  A
C937        H947   1.083       .  S
C938        C939   1.413       .  A
C938        C943   1.480       .  S
C939        C940   1.401       .  A
C939        O944   1.372       .  S
C940        C941   1.397       .  A
C940        H945   1.083       .  S
C941        C942   1.404       .  A
C942        O946   1.371       .  S
C943        C948   1.412       .  A
C943        C952   1.402       .  A
O944        H960   0.992       .  S
O946        H957   0.991       .  S
C948        C949   1.400       .  A
C948        O953   1.372       .  S
C949        C950   1.399       .  A
C949        H954   1.083       .  S
C950        C951   1.406       .  A
C951        C952   1.396       .  A
C951        O955   1.372       .  S
C952        H956   1.084       .  S
O953        H958   0.992       .  S
O955        H959   0.992       .  S
C961        C962   1.403       .  A
C961        C966   1.405       .  A
C961        H971   1.084       .  S
C962        C963   1.412       .  A
C962        C967   1.497       .  S
C963        C964   1.412       .  A
C963        O968   1.372       .  S
C964        C965   1.407       .  A
C964        H969   1.082       .  S
C965        C966   1.412       .  A
C966        O970   1.371       .  S
C967        C972   1.408       .  A
C967        C976   1.410       .  A
O968        H984   0.992       .  S
O970        H981   0.992       .  S
C972        C973   1.404       .  A
C972        O977   1.371       .  S
C973        C974   1.405       .  A
C973        H978   1.083       .  S
C974        C975   1.409       .  A
C975        C976   1.411       .  A
C975        O979   1.371       .  S
C976        H980   1.083       .  S
O977        H982   0.992       .  S
O979        H983   0.991       .  S
C985        C986   1.403       .  A
C985        C990   1.398       .  A
C985        H995   1.084       .  S
C986        C987   1.411       .  A
C986        C991   1.483       .  S
C987        C988   1.402       .  A
C987        O992   1.371       .  S
C988        C989   1.401       .  A
C988        H993   1.083       .  S
C989        C990   1.406       .  A
C990        O994   1.372       .  S
C991        C996   1.410       .  A
C991       C1000   1.404       .  A
O992       H1008   0.992       .  S
O994       H1005   0.992       .  S
C996        C997   1.400       .  A
C996       O1001   1.372       .  S
C997        C998   1.402       .  A
C997       H1002   1.083       .  S
C998        C999   1.408       .  A
C999       C1000   1.399       .  A
C999       O1003   1.370       .  S
C1000      H1004   1.083       .  S
O1001      H1006   0.992       .  S
O1003      H1007   0.992       .  S
