geometry optimzed in LAMMPS
_audit_creation_date              2020-12-01 
_audit_creation_method            'lammps2cif' 
_symmetry_space_group_name_H-M    'P1' 
_symmetry_Int_Tables_number       1 
_symmetry_cell_setting            triclinic 
loop_ 
_symmetry_equiv_pos_as_xyz 
  x,y,z 
_cell_length_a                    36.09292982 
_cell_length_b                    36.31266087426687 
_cell_length_c                    36.161383280722134 
_cell_angle_alpha                 89.94154893720399 
_cell_angle_beta                  89.1521447242861 
_cell_angle_gamma                 89.9440809623434 
loop_ 
_atom_site_label 
_atom_site_type_symbol 
_atom_site_fract_x 
_atom_site_fract_y 
_atom_site_fract_z 
_atom_site_charge 
O1          O  0.72935924  0.83602036  0.63816847    -0.85600
O2          O  0.76302608  0.77148097  0.61906476    -0.82600
C3          C  0.77638428  0.74647505  0.59874303     0.97900
O4          O  0.79438121  0.75446145  0.56948135    -0.82600
O5          O  0.74320854  0.77646608  0.51927511    -0.85300
C6          C  0.71591346  0.79437206  0.50748731     1.02400
O7          O  0.71200060  0.82797365  0.51541884    -0.78000
O8          O  0.69399985  0.83216278  0.59005267    -0.78200
C9          C  0.69775136  0.83165973  0.62472263     1.02400
O10         O  0.79473029  0.87553576  0.62038822    -0.85600
O11         O  0.83181226  0.80886325  0.60935381    -0.82600
C12         C  0.85346165  0.81253794  0.58192280     0.97900
O13         O  0.84068307  0.81656390  0.54985174    -0.82600
O14         O  0.78961596  0.83733508  0.49670598    -0.85300
C15         C  0.78229002  0.87155000  0.49684178     1.02400
O16         O  0.76481284  0.88579278  0.52376273    -0.78100
O17         O  0.74248280  0.89455727  0.59669592    -0.78200
C18         C  0.77041897  0.90028752  0.61661469     1.02400
Cr19       Cr  0.77902803  0.82322469  0.61757156     1.93700
Cr20       Cr  0.79014152  0.79873974  0.53656555     1.93200
Cr21       Cr  0.73133170  0.85762081  0.55746612     1.39100
O22         O  0.76721471  0.82679866  0.57022229    -1.23300
O23         O  0.75021492  0.89405108  0.27167660    -0.85600
O24         O  0.80641105  0.86970921  0.22757481    -0.82600
C25         C  0.80540961  0.88500233  0.19619338     0.97900
O26         O  0.81321928  0.91865848  0.19239421    -0.82600
O27         O  0.81156025  0.99158424  0.21182273    -0.85300
C28         C  0.77736632  0.99853157  0.21649993     1.02400
O29         O  0.76028436  0.98662075  0.24483124    -0.78000
O30         O  0.74233329  0.94262725  0.30603979    -0.78200
C31         C  0.72967070  0.91374384  0.29179294     1.02400
O32         O  0.80023322  0.90077888  0.33338044    -0.85600
O33         O  0.85689657  0.88013139  0.28724895    -0.82600
C34         C  0.88128678  0.88337810  0.26234247     0.97900
O35         O  0.87733682  0.90652859  0.23645256    -0.82600
O36         O  0.87324902  0.97997566  0.26070564    -0.85300
C37         C  0.85991808  0.00851366  0.27587819     1.02400
O38         O  0.82535829  0.01078555  0.28171527    -0.78100
O39         O  0.81124514  0.96030051  0.33801031    -0.78200
C40         C  0.80844351  0.92874139  0.35260955     1.02400
Cr41       Cr  0.80398756  0.89009205  0.27900878     1.93700
Cr42       Cr  0.84154762  0.94826750  0.22868737     1.93200
Cr43       Cr  0.78690734  0.97218057  0.29044195     1.39100
O44         O  0.81125708  0.93666580  0.26624810    -1.23300
O45         O  0.10356305  0.76583523  0.76028104    -0.85600
O46         O  0.12462884  0.72047461  0.70368943    -0.82600
C47         C  0.10624794  0.69106205  0.70272852     0.97900
O48         O  0.07218616  0.69130854  0.69522002    -0.82600
O49         O  0.00166211  0.72069061  0.69647377    -0.85300
C50         C  0.99263703  0.72720894  0.72982048     1.02400
O51         O  0.00693525  0.75375506  0.74724191    -0.78000
O52         O  0.06005244  0.80702451  0.76571779    -0.78200
C53         C  0.08634881  0.78916324  0.77963692     1.02400
O54         O  0.10769002  0.82799968  0.71054244    -0.85600
O55         O  0.12411138  0.78059879  0.65379091    -0.82600
C56         C  0.11813098  0.75722639  0.62891888     0.97900
O57         O  0.09122211  0.73501839  0.63197902    -0.82600
O58         O  0.02086865  0.76811339  0.63503797    -0.85300
C59         C  0.99423222  0.78734642  0.64752827     1.02400
O60         O  0.99181378  0.79359425  0.68169855    -0.78100
O61         O  0.05052015  0.84062543  0.69528916    -0.78200
C62         C  0.08375768  0.85067641  0.69930649     1.02400
Cr63       Cr  0.11084441  0.77323195  0.70648615     1.93700
Cr64       Cr  0.04769910  0.73194955  0.66716577     1.93200
Cr65       Cr  0.03013036  0.79616590  0.72059638     1.39100
O66         O  0.06302138  0.76695841  0.69785325    -1.23300
O67         O  0.19104433  0.24829811  0.38433395    -0.85600
O68         O  0.25804995  0.21617599  0.36742386    -0.82600
C69         C  0.28735415  0.19764954  0.37109010     0.97900
O70         O  0.28819349  0.17130334  0.39397245    -0.82600
O71         O  0.28449638  0.20341746  0.46255010    -0.85300
C72         C  0.27205256  0.22127541  0.48994547     1.02400
O73         O  0.23756613  0.22256261  0.49582165    -0.78000
O74         O  0.20928710  0.26490381  0.43937184    -0.78200
C75         C  0.19881193  0.27317995  0.40733279     1.02400
O76         O  0.15771377  0.17762966  0.38920644    -0.85600
O77         O  0.22396767  0.14540837  0.36456559    -0.82600
C78         C  0.23007898  0.11616431  0.38256715     0.97900
O79         O  0.23394640  0.11788592  0.41719014    -0.82600
O80         O  0.23460917  0.14750621  0.48880371    -0.85300
C81         C  0.20217582  0.14997236  0.50241383     1.02400
O82         O  0.17890025  0.17097626  0.48733338    -0.78100
O83         O  0.14690491  0.21614618  0.43454552    -0.78200
C84         C  0.13511150  0.19641932  0.40832804     1.02400
Cr85       Cr  0.20853653  0.19629130  0.38012904     1.93700
Cr86       Cr  0.25718079  0.16217507  0.43973853     1.93200
Cr87       Cr  0.19513013  0.21651808  0.46148110     1.39100
O88         O  0.22014166  0.19140054  0.42718278    -1.23300
O89         O  0.19131882  0.13353274  0.77765489    -0.85600
O90         O  0.22694199  0.12318782  0.70998926    -0.82600
C91         C  0.25343329  0.10139156  0.71582385     0.97900
O92         O  0.24698708  0.06898340  0.72676446    -0.82600
O93         O  0.20723493  0.00883810  0.75464371    -0.85300
C94         C  0.20173979  0.01264151  0.78905485     1.02400
O95         O  0.18079570  0.03804074  0.80080668    -0.78000
O96         O  0.14492894  0.10453634  0.80458286    -0.78200
C97         C  0.17076167  0.12799553  0.80567463     1.02400
O98         O  0.12180611  0.13477458  0.74112090    -0.85600
O99         O  0.15744142  0.11553179  0.67571907    -0.82600
C100        C  0.17692408  0.09749550  0.65285052     0.97900
O101        O  0.19821936  0.07221065  0.66440069    -0.82600
O102        O  0.15702938  0.01531381  0.69442457    -0.85300
C103        C  0.13422582  0.99948882  0.71589315     1.02400
O104        O  0.12871601  0.01144839  0.74832563    -0.78100
O105        O  0.09557813  0.08095294  0.74756888    -0.78200
C106        C  0.09281737  0.11540321  0.74380376     1.02400
Cr107      Cr  0.17409372  0.12291238  0.72705388     1.93700
Cr108      Cr  0.19998669  0.04389961  0.71220472     1.93200
Cr109      Cr  0.14000130  0.05988119  0.77222215     1.39100
O110        O  0.17118836  0.07533797  0.73698980    -1.23300
O111        O  0.85376870  0.27943299  0.30052671    -0.85600
O112        O  0.87425341  0.23576675  0.24260125    -0.82600
C113        C  0.89444262  0.21769095  0.22063166     0.97900
O114        O  0.92585788  0.20664479  0.23047028    -0.82600
O115        O  0.97158057  0.26635079  0.25055467    -0.85300
C116        C  0.98429763  0.29272764  0.26946380     1.02400
O117        O  0.97685827  0.29466257  0.30363362    -0.78000
O118        O  0.90321947  0.31427690  0.30581643    -0.78200
C119        C  0.86925998  0.31063007  0.29887303     1.02400
O120        O  0.86479903  0.21882409  0.35022435    -0.85600
O121        O  0.88448709  0.17433410  0.29191369    -0.82600
C122        C  0.91319985  0.15472097  0.29608141     0.97900
O123        O  0.94509790  0.16912861  0.29586109    -0.82600
O124        O  0.99506278  0.22400484  0.31297503    -0.85300
C125        C  0.99219714  0.22788337  0.34762968     1.02400
O126        O  0.96362297  0.24254446  0.36193661    -0.78100
O127        O  0.89092450  0.26941524  0.36904588    -0.78200
C128        C  0.86789271  0.24368811  0.37413013     1.02400
Cr129      Cr  0.87349132  0.22811475  0.29668896     1.93700
Cr130      Cr  0.95628123  0.21878345  0.27468720     1.93200
Cr131      Cr  0.93269985  0.27692145  0.33259947     1.39100
O132        O  0.92061970  0.24105353  0.30139946    -1.23300
O133        O  0.72687567  0.25812738  0.61245243    -0.85600
O134        O  0.77121896  0.31583759  0.62764884    -0.82600
C135        C  0.80161656  0.31531080  0.60987230     0.97900
O136        O  0.80311705  0.32204001  0.57558734    -0.82600
O137        O  0.77813549  0.31615566  0.50404233    -0.85300
C138        C  0.77507271  0.28178981  0.49870717     1.02400
O139        O  0.74954110  0.26374987  0.51473852    -0.78000
O140        O  0.69227870  0.24621518  0.56523720    -0.78200
C141        C  0.70690955  0.23611074  0.59495937     1.02400
O142        O  0.66348935  0.30714731  0.60620915    -0.85600
O143        O  0.70985043  0.36510365  0.62038046    -0.82600
C144        C  0.73452701  0.38891711  0.61485474     0.97900
O145        O  0.75785222  0.38460629  0.58874478    -0.82600
O146        O  0.72577211  0.37554739  0.51813633    -0.85300
C147        C  0.70881010  0.36018647  0.49183613     1.02400
O148        O  0.70732204  0.32553532  0.49078073    -0.78100
O149        O  0.65579500  0.31226836  0.54609566    -0.78200
C150        C  0.64268503  0.31207056  0.57861491     1.02400
Cr151      Cr  0.71855427  0.31192369  0.61249270     1.93700
Cr152      Cr  0.76306882  0.34726262  0.54782997     1.93200
Cr153      Cr  0.70357151  0.28916246  0.53202531     1.39100
O154        O  0.72840359  0.31622901  0.56442599    -1.23300
O155        O  0.70025443  0.37685982  0.23587859    -0.85600
O156        O  0.72944291  0.39844223  0.30177968    -0.82600
C157        C  0.75580323  0.41682650  0.28801246     0.97900
O158        O  0.75000989  0.44842827  0.27491888    -0.82600
O159        O  0.71211899  0.50532587  0.24099577    -0.85300
C160        C  0.71005529  0.49723401  0.20702323     1.02400
O161        O  0.69089681  0.47001365  0.19725492    -0.78000
O162        O  0.65826578  0.40136405  0.20013625    -0.78200
C163        C  0.68285488  0.37700723  0.20598051     1.02400
O164        O  0.62787418  0.37895261  0.26656672    -0.85600
O165        O  0.65646733  0.41063629  0.33024175    -0.82600
C166        C  0.67661020  0.42870724  0.35196451     0.97900
O167        O  0.69948331  0.45190933  0.33847517    -0.82600
O168        O  0.65843667  0.50388701  0.29993387    -0.85300
C169        C  0.63681031  0.51663819  0.27591776     1.02400
O170        O  0.63363775  0.50052104  0.24492641    -0.78100
O171        O  0.60187281  0.43039720  0.24998571    -0.78200
C172        C  0.59913433  0.39669462  0.25839485     1.02400
Cr173      Cr  0.67813554  0.39484711  0.28243025     1.93700
Cr174      Cr  0.70290559  0.47474523  0.28695234     1.93200
Cr175      Cr  0.64832920  0.45001290  0.22627864     1.39100
O176        O  0.67611650  0.44012548  0.26512361    -1.23300
O177        O  0.25365551  0.61527186  0.70421342    -0.85600
O178        O  0.28573433  0.63128766  0.77167467    -0.82600
C179        C  0.30465884  0.62740237  0.80058811     0.97900
O180        O  0.33178327  0.60513022  0.80096395    -0.82600
O181        O  0.30033457  0.53729051  0.80222762    -0.85300
C182        C  0.27921298  0.51172671  0.79233665     1.02400
O183        O  0.27429396  0.50564890  0.75830211    -0.78000
O184        O  0.23427725  0.56309847  0.72716505    -0.78200
C185        C  0.22736514  0.59463452  0.71429108     1.02400
O186        O  0.32540918  0.60572909  0.67220981    -0.85600
O187        O  0.35637614  0.63262550  0.73664427    -0.82600
C188        C  0.38577047  0.61446784  0.74095066     0.97900
O189        O  0.38409707  0.58002622  0.74503490    -0.82600
O190        O  0.35426547  0.50910924  0.74988623    -0.85300
C191        C  0.34942131  0.49470506  0.71839598     1.02400
O192        O  0.32566416  0.50833688  0.69700181    -0.78100
O193        O  0.28438360  0.56230020  0.66309479    -0.78200
C194        C  0.30749256  0.58557399  0.65022927     1.02400
Cr195      Cr  0.30564154  0.61749203  0.72216424     1.93700
Cr196      Cr  0.34026378  0.55869750  0.77138155     1.93200
Cr197      Cr  0.28178807  0.53748367  0.71327331     1.39100
O198        O  0.30935100  0.57092343  0.73563931    -1.23300
O199        O  0.35808118  0.22039214  0.66864937    -0.85600
O200        O  0.37259676  0.25910051  0.73165305    -0.82600
C201        C  0.38931129  0.27823474  0.75506463     0.97900
O202        O  0.41897196  0.29477756  0.74642800    -0.82600
O203        O  0.47224738  0.24211973  0.72755854    -0.85300
C204        C  0.48749631  0.21623049  0.70961708     1.02400
O205        O  0.48234357  0.21312880  0.67529601    -0.78000
O206        O  0.40993452  0.18918355  0.67148360    -0.78200
C207        C  0.37498744  0.19041082  0.67375856     1.02400
O208        O  0.37136231  0.28534518  0.62580166    -0.85600
O209        O  0.37890328  0.32579607  0.68966855    -0.82600
C210        C  0.40532824  0.34832064  0.68575323     0.97900
O211        O  0.43840792  0.33686356  0.68297552    -0.82600
O212        O  0.49539790  0.28736769  0.66615017    -0.85300
C213        C  0.49631876  0.28183682  0.63153528     1.02400
O214        O  0.47035392  0.26422768  0.61640910    -0.78100
O215        O  0.39916777  0.23496323  0.60740332    -0.78200
C216        C  0.37664235  0.26095193  0.60155000     1.02400
Cr217      Cr  0.37431155  0.27202277  0.67864675     1.93700
Cr218      Cr  0.45388009  0.28808309  0.70345175     1.93200
Cr219      Cr  0.43913427  0.22833214  0.64492583     1.39100
O220        O  0.42254606  0.26314607  0.67545840    -1.23300
O221        O  0.61558977  0.75156885  0.26260949    -0.85600
O222        O  0.63049732  0.79094992  0.32392448    -0.82600
C223        C  0.61154248  0.82013284  0.32228017     0.97900
O224        O  0.57730149  0.82012810  0.32906403    -0.82600
O225        O  0.50701886  0.79473184  0.32287066    -0.85300
C226        C  0.50518339  0.79552536  0.28798199     1.02400
O227        O  0.52049084  0.77039459  0.26900295    -0.78000
O228        O  0.57032934  0.71482048  0.24859282    -0.78200
C229        C  0.60002895  0.73092734  0.23985997     1.02400
O230        O  0.61039495  0.68481175  0.30551266    -0.85600
O231        O  0.62223043  0.72573311  0.36806249    -0.82600
C232        C  0.61695431  0.74936850  0.39292561     0.97900
O233        O  0.59133565  0.77293077  0.38966315    -0.82600
O234        O  0.52076195  0.74089170  0.37980609    -0.85300
C235        C  0.49409278  0.72554615  0.36351396     1.02400
O236        O  0.49402391  0.72412703  0.32858425    -0.78100
O237        O  0.55041413  0.67441661  0.31208245    -0.78200
C238        C  0.58332897  0.66279109  0.30875379     1.02400
Cr239      Cr  0.61581509  0.73874916  0.31555920     1.93700
Cr240      Cr  0.55039253  0.77922832  0.35317800     1.93200
Cr241      Cr  0.53604605  0.72310097  0.29185389     1.39100
O242        O  0.56764502  0.74663059  0.32061836    -1.23300
O243        O  0.21817808  0.68820764  0.37424693    -0.85600
O244        O  0.26179099  0.74824249  0.38645224    -0.82600
C245        C  0.27895906  0.77193641  0.40488620     0.97900
O246        O  0.29174676  0.76406671  0.43616390    -0.82600
O247        O  0.23760415  0.74238493  0.48808013    -0.85300
C248        C  0.21369912  0.72281100  0.50466475     1.02400
O249        O  0.21274525  0.68858901  0.49915990    -0.78000
O250        O  0.18742007  0.68618824  0.42744858    -0.78200
C251        C  0.18831763  0.69107320  0.39286330     1.02400
O252        O  0.28113535  0.64043221  0.38286640    -0.85600
O253        O  0.32571746  0.70210005  0.39397654    -0.82600
C254        C  0.34730616  0.70201321  0.42130847     0.97900
O255        O  0.33472558  0.70192453  0.45406160    -0.82600
O256        O  0.28501420  0.68201864  0.50929508    -0.85300
C257        C  0.28273347  0.64723311  0.50807674     1.02400
O258        O  0.26521136  0.63193250  0.48215138    -0.78100
O259        O  0.23134637  0.62416941  0.41293867    -0.78200
C260        C  0.25570416  0.61721049  0.38880432     1.02400
Cr261      Cr  0.27105777  0.69438908  0.38868489     1.93700
Cr262      Cr  0.28494924  0.72022091  0.46922228     1.93200
Cr263      Cr  0.22735344  0.66023106  0.45404129     1.39100
O264        O  0.26147173  0.69165518  0.43706408    -1.23300
O265        O  0.80162634  0.64107980  0.71890442    -0.85600
O266        O  0.74171470  0.61833364  0.75957289    -0.82600
C267        C  0.72049653  0.59957514  0.78009287     0.97900
O268        O  0.73261930  0.57094742  0.79575551    -0.82600
O269        O  0.75420863  0.52168443  0.73929330    -0.85300
C270        C  0.77291505  0.50949344  0.71198432     1.02400
O271        O  0.80646376  0.51866521  0.70755093    -0.78000
O272        O  0.80557101  0.59070201  0.68579586    -0.78200
C273        C  0.79858401  0.62452904  0.68848797     1.02400
O274        O  0.84750315  0.63164472  0.78176531    -0.85600
O275        O  0.78666606  0.61441931  0.82386417    -0.82600
C276        C  0.79690866  0.58868276  0.84489534     0.97900
O277        O  0.80121704  0.55644706  0.83243634    -0.82600
O278        O  0.81856078  0.50335524  0.78022997    -0.85300
C279        C  0.85285272  0.50652872  0.77345701     1.02400
O280        O  0.86555421  0.53458913  0.75716643    -0.78100
O281        O  0.86885210  0.60620927  0.73083959    -0.78200
C282        C  0.87288802  0.62798427  0.75780801     1.02400
Cr283      Cr  0.79497286  0.62249532  0.77016579     1.93700
Cr284      Cr  0.77849542  0.54087860  0.78482471     1.93200
Cr285      Cr  0.83422544  0.56352580  0.72332261     1.39100
O286        O  0.80271127  0.57558560  0.75948132    -1.23300
O287        O  0.87835228  0.30934962  0.75323329    -0.85600
O288        O  0.85665228  0.24705498  0.78995570    -0.82600
C289        C  0.85867952  0.21856211  0.80967878     0.97900
O290        O  0.88297498  0.21528340  0.83438951    -0.82600
O291        O  0.95124318  0.21012490  0.80120849    -0.85300
C292        C  0.97843155  0.21879562  0.78080944     1.02400
O293        O  0.98670971  0.25237310  0.77672027    -0.78000
O294        O  0.93012111  0.28278831  0.73549829    -0.78200
C295        C  0.89846722  0.29526849  0.72806469     1.02400
O296        O  0.88967953  0.34438194  0.82335798    -0.85600
O297        O  0.85866654  0.28350989  0.85868386    -0.82600
C298        C  0.87655936  0.27567762  0.88729947     0.97900
O299        O  0.91089104  0.26929604  0.88474422    -0.82600
O300        O  0.98165760  0.26194471  0.85374106    -0.85300
C301        C  0.99619822  0.29343850  0.84887552     1.02400
O302        O  0.98352121  0.31496827  0.82474897    -0.78100
O303        O  0.93256988  0.34845987  0.78029317    -0.78200
C304        C  0.90980305  0.36384515  0.80243890     1.02400
Cr305      Cr  0.87459325  0.29507040  0.80673670     1.93700
Cr306      Cr  0.93106308  0.24214529  0.84112273     1.93200
Cr307      Cr  0.95553207  0.29804281  0.78151885     1.39100
O308        O  0.92045857  0.27825723  0.80998024    -1.23300
O309        O  0.79824909  0.74192087  0.11103069    -0.85600
O310        O  0.73203807  0.70938940  0.12877977    -0.82600
C311        C  0.70189867  0.69259676  0.12429040     0.97900
O312        O  0.69799244  0.66928871  0.09852349    -0.82600
O313        O  0.69906966  0.70335721  0.03106977    -0.85300
C314        C  0.70995923  0.72306951  0.00453734     1.02400
O315        O  0.74448093  0.72760582  0.99924235    -0.78000
O316        O  0.77468469  0.76449241  0.06035999    -0.78200
C317        C  0.78739120  0.76918714  0.09242824     1.02400
O318        O  0.82865865  0.67054319  0.09520994    -0.85600
O319        O  0.76425348  0.63877616  0.12362902    -0.82600
C320        C  0.75567704  0.61112394  0.10457879     0.97900
O321        O  0.74987549  0.61509913  0.07052768    -0.82600
O322        O  0.74980955  0.64880747  0.00147523    -0.85300
C323        C  0.78218144  0.65353324  0.98797268     1.02400
O324        O  0.80423084  0.67598431  0.00249319    -0.78100
O325        O  0.83845061  0.71616320  0.05711764    -0.78200
C326        C  0.85098924  0.69243080  0.07945695     1.02400
Cr327      Cr  0.77984500  0.68996594  0.11085673     1.93700
Cr328      Cr  0.72739444  0.66147527  0.05131809     1.93200
Cr329      Cr  0.78843160  0.71882140  0.03225229     1.39100
O330        O  0.76487870  0.69001132  0.06466522    -1.23300
O331        O  0.23985115  0.39297742  0.24215030    -0.85600
O332        O  0.17681894  0.37461931  0.28163792    -0.82600
C333        C  0.17710741  0.39184655  0.31194112     0.97900
O334        O  0.17283432  0.42631331  0.31283073    -0.82600
O335        O  0.17871016  0.49782752  0.28792553    -0.85300
C336        C  0.21322867  0.50418503  0.28476563     1.02400
O337        O  0.23187575  0.48946318  0.25892803    -0.78000
O338        O  0.25177258  0.43880395  0.20466099    -0.78200
C339        C  0.26186835  0.40991817  0.22089168     1.02400
O340        O  0.19729870  0.39670040  0.17558611    -0.85600
O341        O  0.13405518  0.38423382  0.21626332    -0.82600
C342        C  0.10788260  0.38930321  0.23905961     0.97900
O343        O  0.11136319  0.41308022  0.26451817    -0.82600
O344        O  0.12060522  0.48377315  0.23524029    -0.85300
C345        C  0.13578755  0.51024051  0.21810712     1.02400
O346        O  0.17060382  0.51149180  0.21507441    -0.78100
O347        O  0.18747311  0.45548768  0.16482758    -0.78200
C348        C  0.19147235  0.42283229  0.15323986     1.02400
Cr349      Cr  0.18660301  0.39107489  0.22968941     1.93700
Cr350      Cr  0.14836536  0.45410938  0.27225511     1.93200
Cr351      Cr  0.20816307  0.47130666  0.21313802     1.39100
O352        O  0.18087544  0.43874161  0.23829524    -1.23300
O353        O  0.13195340  0.77716234  0.19186628    -0.85600
O354        O  0.11200367  0.73508318  0.25149361    -0.82600
C355        C  0.09318439  0.71633243  0.27424175     0.97900
O356        O  0.06347347  0.70163057  0.26415926    -0.82600
O357        O  0.01692269  0.76119955  0.24717670    -0.85300
C358        C  0.00313280  0.78776058  0.22927716     1.02400
O359        O  0.00876852  0.79076770  0.19482194    -0.78000
O360        O  0.08194730  0.81153302  0.18735254    -0.78200
C361        C  0.11627289  0.80826200  0.19310468     1.02400
O362        O  0.11933482  0.71599918  0.14386643    -0.85600
O363        O  0.10273241  0.67224355  0.20394421    -0.82600
C364        C  0.07457181  0.65228686  0.19836737     0.97900
O365        O  0.04249620  0.66628487  0.19762342    -0.82600
O366        O  0.99034022  0.72130401  0.18605634    -0.85300
C367        C  0.99034866  0.72362726  0.15141439     1.02400
O368        O  0.01777022  0.73864727  0.13510953    -0.78100
O369        O  0.09048200  0.76532517  0.12483318    -0.78200
C370        C  0.11396662  0.74013078  0.11943257     1.02400
Cr371      Cr  0.11246819  0.72602301  0.19750143     1.93700
Cr372      Cr  0.03123892  0.71466744  0.22139280     1.93200
Cr373      Cr  0.05080710  0.77340151  0.16288354     1.39100
O374        O  0.06508707  0.73801227  0.19371740    -1.23300
O375        O  0.26217634  0.29698377  0.87124008    -0.85600
O376        O  0.19376929  0.26798655  0.88557283    -0.82600
C377        C  0.20014886  0.24134781  0.90694846     0.97900
O378        O  0.20979562  0.24684825  0.93987736    -0.82600
O379        O  0.24067075  0.28394579  0.99893864    -0.85300
C380        C  0.27530769  0.28330255  0.99286250     1.02400
O381        O  0.28870286  0.30202273  0.96649386    -0.78000
O382        O  0.29455397  0.33889317  0.90002212    -0.78200
C383        C  0.29199812  0.31436257  0.87530299     1.02400
O384        O  0.23170510  0.36934133  0.87342874    -0.85600
O385        O  0.16461382  0.34030582  0.89507213    -0.82600
C386        C  0.14041437  0.32138741  0.91166603     0.97900
O387        O  0.15042812  0.29933463  0.93691605    -0.82600
O388        O  0.18471590  0.33998635  0.99175842    -0.85300
C389        C  0.20844579  0.35903690  0.00830361     1.02400
O390        O  0.24179612  0.35936453  0.99659974    -0.78100
O391        O  0.24300136  0.39316998  0.92757072    -0.78200
C392        C  0.23795130  0.39710281  0.89337143     1.02400
Cr393      Cr  0.21393810  0.31885606  0.88501073     1.93700
Cr394      Cr  0.19849656  0.29462540  0.96453388     1.93200
Cr395      Cr  0.26393447  0.34631631  0.94669057     1.39100
O396        O  0.22547443  0.31999314  0.93212978    -1.23300
O397        O  0.62107270  0.72237380  0.81691920    -0.85600
O398        O  0.60716771  0.76367969  0.75666874    -0.82600
C399        C  0.59170939  0.78493005  0.73436516     0.97900
O400        O  0.56112709  0.79955976  0.74278340    -0.82600
O401        O  0.51104987  0.74428508  0.76323918    -0.85300
C402        C  0.49499663  0.71976185  0.78224720     1.02400
O403        O  0.49743807  0.72026992  0.81711622    -0.78000
O404        O  0.56765754  0.69334736  0.82049549    -0.78200
C405        C  0.60194451  0.69346789  0.81352192     1.02400
O406        O  0.61312029  0.78677971  0.86276711    -0.85600
O407        O  0.60148571  0.82898528  0.80117301    -0.82600
C408        C  0.57451715  0.85125536  0.80367954     0.97900
O409        O  0.54145366  0.83991977  0.80605952    -0.82600
O410        O  0.48549199  0.79042479  0.82391577    -0.85300
C411        C  0.48613022  0.78817207  0.85895046     1.02400
O412        O  0.51312749  0.77236969  0.87437396    -0.78100
O413        O  0.58344892  0.73844823  0.88307463    -0.78200
C414        C  0.60858823  0.76238870  0.88705774     1.02400
Cr415      Cr  0.60687814  0.77496558  0.80988806     1.93700
Cr416      Cr  0.52697377  0.79123846  0.78621256     2.00400
Cr417      Cr  0.54173093  0.73401312  0.84666117     1.39100
O418        O  0.55874758  0.76724644  0.81462754    -1.23300
O419        O  0.25751756  0.76672434  0.88763404    -0.85600
O420        O  0.20887756  0.82386959  0.87779660    -0.82600
C421        C  0.18019790  0.81763832  0.89750615     0.97900
O422        O  0.18105849  0.81977176  0.93227210    -0.82600
O423        O  0.21079624  0.81917449  0.00187258    -0.85300
C424        C  0.21603391  0.78506542  0.00605162     1.02400
O425        O  0.24197700  0.76903273  0.98869578    -0.78000
O426        O  0.29478046  0.75431563  0.93317716    -0.78200
C427        C  0.27883233  0.74461563  0.90375837     1.02400
O428        O  0.31841218  0.81702411  0.89151789    -0.85600
O429        O  0.26911051  0.87521502  0.88505913    -0.82600
C430        C  0.24195623  0.89622766  0.89162577     0.97900
O431        O  0.21812993  0.88668875  0.91557431    -0.82600
O432        O  0.25495370  0.88212505  0.98268215    -0.85300
C433        C  0.27505338  0.86932590  0.00790733     1.02400
O434        O  0.28239806  0.83504118  0.00869230    -0.78100
O435        O  0.33078364  0.82223963  0.95051583    -0.78200
C436        C  0.34145903  0.82178254  0.91714662     1.02400
Cr437      Cr  0.26303108  0.82093325  0.88942431     1.93700
Cr438      Cr  0.21941913  0.84984255  0.95669330     1.93200
Cr439      Cr  0.28496060  0.79712139  0.96798420     1.39100
O440        O  0.25601304  0.82255501  0.93789547    -1.23300
O441        O  0.72452555  0.12324037  0.75868864    -0.85600
O442        O  0.66442915  0.13136972  0.71697851    -0.82600
C443        C  0.67518446  0.11466726  0.68806996     0.97900
O444        O  0.67534781  0.08000775  0.68676341    -0.82600
O445        O  0.68452460  0.00948073  0.71196700    -0.85300
C446        C  0.71928525  0.00854874  0.71628599     1.02400
O447        O  0.73395737  0.02658188  0.74181146    -0.78000
O448        O  0.74373533  0.07962625  0.79544179    -0.78200
C449        C  0.74874419  0.11016597  0.77935651     1.02400
O450        O  0.68029428  0.11190765  0.82425952    -0.85600
O451        O  0.61817324  0.11444115  0.78027406    -0.82600
C452        C  0.59697190  0.10945678  0.75340816     0.97900
O453        O  0.60685925  0.08757237  0.72776855    -0.82600
O454        O  0.62093185  0.01856174  0.75987215    -0.85300
C455        C  0.63743602  0.99386884  0.77805068     1.02400
O456        O  0.67201043  0.99626733  0.78343407    -0.78100
O457        O  0.68009458  0.05225150  0.83383233    -0.78200
C458        C  0.67956531  0.08462599  0.84616876     1.02400
Cr459      Cr  0.67190886  0.11660231  0.76965288     1.93700
Cr460      Cr  0.64856736  0.05014698  0.72442822     1.93200
Cr461      Cr  0.70515050  0.04066868  0.78640935     1.39100
O462        O  0.67497269  0.06908410  0.76056364    -1.23300
O463        O  0.37408767  0.24694212  0.23183280    -0.85600
O464        O  0.35894545  0.28198873  0.16763008    -0.82600
C465        C  0.37449924  0.31276819  0.17179294     0.97900
O466        O  0.40915227  0.31584447  0.16911573    -0.82600
O467        O  0.48244921  0.29701338  0.17379488    -0.85300
C468        C  0.48594416  0.29773104  0.20847076     1.02400
O469        O  0.47175403  0.27221482  0.22783479    -0.78000
O470        O  0.42302835  0.21657262  0.24990097    -0.78200
C471        C  0.39202831  0.23135252  0.25691805     1.02400
O472        O  0.38603765  0.17908507  0.19277328    -0.85600
O473        O  0.37562745  0.21639788  0.12732326    -0.82600
C474        C  0.37938270  0.24022471  0.10224071     0.97900
O475        O  0.40035442  0.26764067  0.10712787    -0.82600
O476        O  0.47219723  0.24209073  0.11797237    -0.85300
C477        C  0.49908988  0.22722080  0.13419751     1.02400
O478        O  0.49922809  0.22465422  0.16920538    -0.78100
O479        O  0.44660752  0.17235382  0.18937692    -0.78200
C480        C  0.41440234  0.15865620  0.19107450     1.02400
Cr481      Cr  0.37764006  0.23187796  0.17964649     1.93700
Cr482      Cr  0.43991192  0.27779737  0.14434495     1.93200
Cr483      Cr  0.45775655  0.22328872  0.20665439     1.39100
O484        O  0.42514795  0.24377311  0.17662090    -1.23300
O485        O  0.77307602  0.17149684  0.12353997    -0.85600
O486        O  0.73278890  0.23281104  0.11561224    -0.82600
C487        C  0.71354176  0.25812829  0.10215791     0.97900
O488        O  0.69895186  0.25364958  0.07089792    -0.82600
O489        O  0.75361103  0.23455682  0.01655132    -0.85300
C490        C  0.77678248  0.21529889  0.99831769     1.02400
O491        O  0.77400174  0.18082433  0.99976174    -0.78000
O492        O  0.80173932  0.17552247  0.06956343    -0.78200
C493        C  0.80160976  0.17902302  0.10420138     1.02400
O494        O  0.70735466  0.12759129  0.11273757    -0.85600
O495        O  0.66598097  0.19106354  0.10769785    -0.82600
C496        C  0.64396456  0.19125437  0.08081042     0.97900
O497        O  0.65583702  0.19305446  0.04785809    -0.82600
O498        O  0.70412867  0.17662659  0.99104652    -0.85300
C499        C  0.70571526  0.14165097  0.99047054     1.02400
O500        O  0.72220619  0.12433718  0.01587162    -0.78100
O501        O  0.75793696  0.11165462  0.08376592    -0.78200
C502        C  0.73280522  0.10444369  0.10730205     1.02400
Cr503      Cr  0.72015363  0.18062273  0.11117109     1.93700
Cr504      Cr  0.70528485  0.21227922  0.03364546     1.93200
Cr505      Cr  0.76129115  0.15006163  0.04372695     1.39100
O506        O  0.72826310  0.18079708  0.06300414    -1.23300
O507        O  0.32323365  0.87227756  0.27193742    -0.85600
O508        O  0.26301768  0.88678827  0.22925424    -0.82600
C509        C  0.23866561  0.90501475  0.21255405     0.97900
O510        O  0.24622418  0.93642372  0.19932800    -0.82600
O511        O  0.26116502  0.98555856  0.25645604    -0.85300
C512        C  0.27755560  0.00043849  0.28315295     1.02400
O513        O  0.31183214  0.99520236  0.28710582    -0.78000
O514        O  0.31694534  0.92138191  0.30682915    -0.78200
C515        C  0.31725967  0.88674457  0.30324281     1.02400
O516        O  0.37124773  0.89107399  0.21104527    -0.85600
O517        O  0.31027950  0.90071369  0.16670391    -0.82600
C518        C  0.31242524  0.92918555  0.14665743     0.97900
O519        O  0.31132892  0.96095278  0.16078626    -0.82600
O520        O  0.32436934  0.01318238  0.21474334    -0.85300
C521        C  0.35872399  0.01390587  0.22187131     1.02400
O522        O  0.37370015  0.98715229  0.23838728    -0.78100
O523        O  0.38366883  0.91532721  0.26445099    -0.78200
C524        C  0.39276897  0.89445575  0.23787548     1.02400
Cr525      Cr  0.31693286  0.89178832  0.22062995     1.93700
Cr526      Cr  0.28817297  0.97134659  0.20996258     1.93200
Cr527      Cr  0.34429522  0.95361671  0.27093959     1.39100
O528        O  0.31655225  0.93893746  0.23349991    -1.23300
C529        C  0.37119725  0.06502491  0.17808531    -0.06000
C530        C  0.38026309  0.04753479  0.21144940    -0.00100
C531        C  0.40599377  0.06484178  0.23527516    -0.08600
C532        C  0.41969625  0.10013895  0.22574643    -0.06000
C533        C  0.40864612  0.11830710  0.19344654    -0.00100
C534        C  0.38566129  0.09965611  0.16824832    -0.08500
C535        C  0.37430724  0.11639999  0.13169026     0.61800
H536        H  0.35182134  0.05175245  0.15975794     0.12500
H537        H  0.43720123  0.11493876  0.24471730     0.12500
C538        C  0.41714650  0.04745160  0.27166425     0.62100
F539        F  0.37210778  0.08930230  0.10491073    -0.23100
F540        F  0.39973395  0.14220790  0.11919910    -0.20400
F541        F  0.33997459  0.13292970  0.13582684    -0.20100
F542        F  0.43596407  0.01491276  0.26486311    -0.20200
F543        F  0.38596346  0.04035650  0.29320295    -0.20500
F544        F  0.44017684  0.07019151  0.29168603    -0.23200
C545        C  0.54964437  0.18219683  0.12705475    -0.06000
C546        C  0.53210479  0.21386743  0.11338171    -0.00100
C547        C  0.54930190  0.23418837  0.08430148    -0.08600
C548        C  0.58486284  0.22343406  0.07202089    -0.06000
C549        C  0.60381910  0.19411426  0.08854788    -0.00100
C550        C  0.58543778  0.17195875  0.11529241    -0.08500
C551        C  0.60336198  0.13776464  0.13144531     0.61800
H552        H  0.53574567  0.16651368  0.14865114     0.12500
H553        H  0.59937564  0.23965519  0.05125162     0.12500
C554        C  0.53169476  0.26845884  0.06801226     0.62100
F555        F  0.57846651  0.11750260  0.15268175    -0.23100
F556        F  0.63247102  0.14747278  0.15381197    -0.20400
F557        F  0.61632751  0.11540944  0.10312961    -0.20100
F558        F  0.52487123  0.29401088  0.09563507    -0.20200
F559        F  0.49882311  0.25921152  0.05127568    -0.20500
F560        F  0.55434266  0.28492893  0.04155012    -0.23200
C561        C  0.71224282  0.09067877  0.94531181    -0.06000
C562        C  0.69229769  0.12176965  0.95737648    -0.00100
C563        C  0.66304678  0.13537533  0.93533251    -0.08600
C564        C  0.65811149  0.12041691  0.89998232    -0.06000
C565        C  0.68050160  0.09180664  0.88643001    -0.00100
C566        C  0.70694667  0.07530171  0.91003717    -0.08500
C567        C  0.73117196  0.04323884  0.89756153     0.61800
H568        H  0.73387937  0.07999886  0.96276815     0.12500
H569        H  0.63770902  0.13233522  0.88179684     0.12500
C570        C  0.63750064  0.16617881  0.94814880     0.62100
F571        F  0.75572689  0.03250088  0.92459900    -0.23100
F572        F  0.75165309  0.05299797  0.86651020    -0.20400
F573        F  0.70923611  0.01326204  0.88954690    -0.20100
F574        F  0.65514740  0.19974891  0.94405821    -0.20200
F575        F  0.62732402  0.16093425  0.98477640    -0.20500
F576        F  0.60533332  0.16711467  0.92777136    -0.23200
C577        C  0.32182083  0.88112183  0.05549019    -0.06000
C578        C  0.28945374  0.89313957  0.03820543    -0.00100
C579        C  0.27101067  0.92488567  0.05264554    -0.08600
C580        C  0.28270148  0.93967822  0.08665048    -0.06000
C581        C  0.31216543  0.92411320  0.10603312    -0.00100
C582        C  0.33402945  0.89678924  0.08848398    -0.08500
C583        C  0.36972535  0.88229497  0.10399383     0.61800
H584        H  0.33745939  0.85839988  0.04360809     0.12500
H585        H  0.26684423  0.96140355  0.09994470     0.12500
C586        C  0.23905928  0.94295362  0.03303062     0.62100
F587        F  0.39718574  0.88348359  0.07689541    -0.23100
F588        F  0.36434344  0.84613520  0.11472285    -0.20400
F589        F  0.38172971  0.90284540  0.13365478    -0.20100
F590        F  0.21046449  0.91812307  0.02845987    -0.20200
F591        F  0.25174921  0.95543274  0.99911081    -0.20500
F592        F  0.22507775  0.97293329  0.05235959    -0.23200
C593        C  0.58720193  0.94857253  0.76812283    -0.06000
C594        C  0.61704238  0.96012776  0.78981766    -0.00100
C595        C  0.62776938  0.93807627  0.82037575    -0.08600
C596        C  0.61093652  0.90357406  0.82547449    -0.06000
C597        C  0.58325401  0.89089659  0.80199013    -0.00100
C598        C  0.57003055  0.91417940  0.77361276    -0.08500
C599        C  0.53970148  0.90199406  0.74769275     0.61800
H600        H  0.57872866  0.96583513  0.74533310     0.12500
H601        H  0.62040173  0.88536054  0.84714301     0.12500
C602        C  0.65607342  0.95082189  0.84819525     0.62100
F603        F  0.53083520  0.92915324  0.72240798    -0.23100
F604        F  0.50794563  0.89363744  0.76782189    -0.20400
F605        F  0.55123774  0.87134521  0.72810324    -0.20100
F606        F  0.64719921  0.98603925  0.85974943    -0.20200
F607        F  0.69125814  0.95033788  0.83259214    -0.20500
F608        F  0.65647711  0.92841826  0.87920147    -0.23200
C609        C  0.43213762  0.83034198  0.86343913    -0.06000
C610        C  0.45332467  0.80254805  0.88034949    -0.00100
C611        C  0.44003097  0.78697560  0.91414191    -0.08600
C612        C  0.40457068  0.79738775  0.92753881    -0.06000
C613        C  0.38174643  0.82163929  0.90783076    -0.00100
C614        C  0.39654540  0.84014318  0.87650865    -0.08500
C615        C  0.37501251  0.87025837  0.85701635     0.61800
H616        H  0.44293236  0.84321643  0.83849861     0.12500
H617        H  0.39298232  0.78402569  0.95185784     0.12500
C618        C  0.46166691  0.75782371  0.93487568     0.62100
F619        F  0.39718178  0.88946795  0.83210238    -0.23100
F620        F  0.36132616  0.89509475  0.88280759    -0.20400
F621        F  0.34591039  0.85530203  0.83771294    -0.20100
F622        F  0.49552794  0.77195375  0.94524498    -0.20200
F623        F  0.46713487  0.72732650  0.91255048    -0.20500
F624        F  0.44320830  0.74630972  0.96667239    -0.23200
C625        C  0.33940300  0.26464749  0.00958789    -0.06000
C626        C  0.30112600  0.26308142  0.01802946    -0.00100
C627        C  0.28961118  0.24437759  0.05099136    -0.08600
C628        C  0.31682997  0.23315226  0.07626909    -0.06000
C629        C  0.35462915  0.23994700  0.06982976    -0.00100
C630        C  0.36629155  0.25287029  0.03474568    -0.08500
C631        C  0.40698692  0.25501389  0.02405877     0.61800
H632        H  0.34860386  0.27686652  0.98372062     0.12500
H633        H  0.30844899  0.22211801  0.10293786     0.12500
C634        C  0.24912923  0.23768291  0.06099233     0.62100
F635        F  0.41180084  0.25513516  0.98600030    -0.23100
F636        F  0.42571251  0.22478530  0.03781464    -0.20400
F637        F  0.42221766  0.28688264  0.03809412    -0.20100
F638        F  0.23158691  0.22047034  0.03197181    -0.20200
F639        F  0.23188369  0.27081825  0.06895509    -0.20500
F640        F  0.24513910  0.21517040  0.09172748    -0.23200
C641        C  0.15177856  0.86251448  0.17095155    -0.06000
C642        C  0.13972128  0.84075548  0.20081529    -0.00100
C643        C  0.15621596  0.84555228  0.23571749    -0.08600
C644        C  0.18682830  0.86905024  0.23879424    -0.06000
C645        C  0.20134512  0.88825291  0.20826393    -0.00100
C646        C  0.18272526  0.88613335  0.17389957    -0.08500
C647        C  0.19749969  0.90553263  0.13961204     0.61800
H648        H  0.13882818  0.85836998  0.14445106     0.12500
H649        H  0.20118710  0.87067479  0.26487153     0.12500
C650        C  0.14539227  0.82222634  0.26865694     0.62100
F651        F  0.17575555  0.89903822  0.10907561    -0.23100
F652        F  0.23280264  0.89283557  0.13166400    -0.20400
F653        F  0.19836330  0.94314160  0.14542156    -0.20100
F654        F  0.10765972  0.81560615  0.26927566    -0.20200
F655        F  0.15419868  0.83956701  0.30146349    -0.20500
F656        F  0.16451241  0.78929152  0.26645794    -0.23200
C657        C  0.17736857  0.74009093  0.09307791    -0.06000
C658        C  0.13910629  0.74269732  0.08666413    -0.00100
C659        C  0.12681197  0.75396981  0.05129596    -0.08600
C660        C  0.15337417  0.76487774  0.02456850    -0.06000
C661        C  0.19138050  0.76507742  0.03213876    -0.00100
C662        C  0.20382292  0.75186676  0.06658826    -0.08500
C663        C  0.24457182  0.75292984  0.07627216     0.61800
H664        H  0.18635536  0.73166750  0.12025031     0.12500
H665        H  0.14450626  0.77533543  0.99805853     0.12500
C666        C  0.08596600  0.75491322  0.04171510     0.62100
F667        F  0.25073775  0.73998511  0.11168274    -0.23100
F668        F  0.25740162  0.78877696  0.07424940    -0.20400
F669        F  0.26461556  0.73126416  0.05173895    -0.20100
F670        F  0.06836230  0.78351495  0.06005000    -0.20200
F671        F  0.06945234  0.72193759  0.05168825    -0.20500
F672        F  0.08090410  0.76000374  0.00416435    -0.23200
C673        C  0.16688433  0.38508992  0.10278661    -0.06000
C674        C  0.19068169  0.41356090  0.11333271    -0.00100
C675        C  0.21716263  0.42718047  0.08752639    -0.08600
C676        C  0.22059172  0.40982537  0.05274521    -0.06000
C677        C  0.19835084  0.37960350  0.04289106    -0.00100
C678        C  0.16976315  0.36799752  0.06790062    -0.08500
C679        C  0.14320737  0.33682179  0.05901089     0.61800
H680        H  0.14675032  0.37531782  0.12302593     0.12500
H681        H  0.24173366  0.41905364  0.03330282     0.12500
C682        C  0.24285802  0.45866892  0.09726010     0.62100
F683        F  0.11863183  0.32975645  0.08791378    -0.23100
F684        F  0.16278833  0.30476280  0.05202495    -0.20400
F685        F  0.12254331  0.34610222  0.02845944    -0.20100
F686        F  0.26413451  0.44912146  0.12722697    -0.20200
F687        F  0.22219606  0.48962104  0.10593275    -0.20500
F688        F  0.26662047  0.46758105  0.06821460    -0.23200
C689        C  0.08001602  0.55099492  0.22219244    -0.06000
C690        C  0.11382002  0.54214505  0.20449318    -0.00100
C691        C  0.12770960  0.56618948  0.17649363    -0.08600
C692        C  0.11199904  0.60136414  0.17320042    -0.06000
C693        C  0.08105229  0.61207224  0.19443966    -0.00100
C694        C  0.06246899  0.58525969  0.21635789    -0.08500
C695        C  0.02440129  0.59246324  0.23296792     0.61800
H696        H  0.06813832  0.53154173  0.24171631     0.12500
H697        H  0.12494977  0.62146793  0.15499485     0.12500
C698        C  0.15868807  0.55519617  0.14981048     0.62100
F699        F  0.01145960  0.56270926  0.25331505    -0.23100
F700        F  0.99996962  0.59876223  0.20461967    -0.20400
F701        F  0.02491623  0.62275974  0.25593040    -0.20100
F702        F  0.15329261  0.51941841  0.13800414    -0.20200
F703        F  0.19271326  0.55812258  0.16661202    -0.20500
F704        F  0.15925947  0.57752574  0.11873977    -0.23200
C705        C  0.29386653  0.37756818  0.17139487    -0.06000
C706        C  0.29545193  0.39146630  0.20742624    -0.00100
C707        C  0.32697966  0.38523179  0.22912261    -0.08600
C708        C  0.35474295  0.36161151  0.21505420    -0.06000
C709        C  0.35105753  0.34462429  0.18040189    -0.00100
C710        C  0.32135086  0.35423641  0.15728992    -0.08500
C711        C  0.31795833  0.33904728  0.11837254     0.61800
H712        H  0.26961026  0.38325187  0.15506380     0.12500
H713        H  0.37835438  0.35463917  0.23178019     0.12500
C714        C  0.33110319  0.40373161  0.26635756     0.62100
F715        F  0.29087638  0.35723236  0.09864582    -0.23100
F716        F  0.30863971  0.30222998  0.11989830    -0.20400
F717        F  0.35126323  0.34311284  0.09938902    -0.20100
F718        F  0.36423747  0.39444430  0.28279586    -0.20200
F719        F  0.30241178  0.39339492  0.28988725    -0.20500
F720        F  0.33027285  0.44154138  0.26166846    -0.23200
C721        C  0.89475656  0.68361334  0.12998789    -0.06000
C722        C  0.88976537  0.69479008  0.09333603    -0.00100
C723        C  0.92005799  0.71129596  0.07401480    -0.08600
C724        C  0.95293940  0.71906072  0.09346333    -0.06000
C725        C  0.95659863  0.71068854  0.13130962    -0.00100
C726        C  0.92707738  0.69114001  0.14954048    -0.08500
C727        C  0.92793179  0.67887422  0.18992009     0.61800
H728        H  0.87173238  0.67074182  0.14444893     0.12500
H729        H  0.97564164  0.73290456  0.07935861     0.12500
C730        C  0.91830590  0.71976822  0.03300253     0.62100
F731        F  0.89817672  0.65658291  0.19952677    -0.23100
F732        F  0.92657847  0.70928785  0.21291419    -0.20400
F733        F  0.95964340  0.65872355  0.19627674    -0.20100
F734        F  0.89457442  0.74890676  0.02678876    -0.20200
F735        F  0.90596815  0.68901286  0.01436966    -0.20500
F736        F  0.95274620  0.72908651  0.01846234    -0.23200
C737        C  0.62017985  0.74643380  0.95275604    -0.06000
C738        C  0.63446909  0.75934231  0.91888836    -0.00100
C739        C  0.67343528  0.76451294  0.91506485    -0.08600
C740        C  0.69655229  0.75391746  0.94439727    -0.06000
C741        C  0.68252189  0.73869601  0.97758639    -0.00100
C742        C  0.64320180  0.73671646  0.98248297    -0.08500
C743        C  0.62492836  0.72461035  0.01861412     0.61800
H744        H  0.59043623  0.74311140  0.95542699     0.12500
H745        H  0.72627725  0.75630849  0.94091290     0.12500
C746        C  0.69112309  0.77951374  0.87969118     0.62100
F747        F  0.58701895  0.73057460  0.01876481    -0.23100
F748        F  0.63940667  0.74458205  0.04752912    -0.20400
F749        F  0.63072340  0.68738964  0.02426343    -0.20100
F750        F  0.67867502  0.81497065  0.87339412    -0.20200
F751        F  0.68221299  0.75730936  0.85010437    -0.20500
F752        F  0.72939057  0.78082266  0.88158107    -0.23200
C753        C  0.05372603  0.33080135  0.85243852    -0.06000
C754        C  0.03030630  0.30444855  0.86916445    -0.00100
C755        C  0.04073679  0.28914628  0.90361846    -0.08600
C756        C  0.07601033  0.29744723  0.91755302    -0.06000
C757        C  0.10102925  0.32105472  0.89893397    -0.00100
C758        C  0.08862145  0.33993728  0.86680177    -0.08500
C759        C  0.11172903  0.36911014  0.84684888     0.61800
H760        H  0.04515481  0.34329160  0.82675319     0.12500
H761        H  0.08481597  0.28407756  0.94271043     0.12500
C762        C  0.01507343  0.26427804  0.92600569     0.62100
F763        F  0.09181565  0.38706443  0.81978468    -0.23100
F764        F  0.14224859  0.35304499  0.82979393    -0.20400
F765        F  0.12312407  0.39548546  0.87181540    -0.20100
F766        F  0.01273903  0.23014283  0.90931272    -0.20200
F767        F  0.98019604  0.27997871  0.92866241    -0.20500
F768        F  0.02763961  0.25905770  0.96162755    -0.23200
C769        C  0.84266858  0.15515621  0.79131376    -0.06000
C770        C  0.83105560  0.18956494  0.80491543    -0.00100
C771        C  0.79311413  0.19632737  0.81254600    -0.08600
C772        C  0.76769816  0.16857687  0.80482189    -0.06000
C773        C  0.77889862  0.13480155  0.78971875    -0.00100
C774        C  0.81681013  0.12739683  0.78316453    -0.08500
C775        C  0.82940379  0.09134387  0.76610389     0.61800
H776        H  0.87193398  0.15077623  0.78586404     0.12500
H777        H  0.73840905  0.17323169  0.80998644     0.12500
C778        C  0.77941408  0.23227854  0.82945042     0.62100
F779        F  0.86754506  0.08991603  0.76166067    -0.23100
F780        F  0.81363323  0.08726869  0.73173120    -0.20400
F781        F  0.81858784  0.06233406  0.78855673    -0.20100
F782        F  0.78689196  0.26133771  0.80579304    -0.20200
F783        F  0.79677106  0.23807694  0.86271658    -0.20500
F784        F  0.74156191  0.23184987  0.83631869    -0.23200
C785        C  0.86141605  0.22938679  0.93411186    -0.06000
C786        C  0.85552879  0.26524099  0.92139183    -0.00100
C787        C  0.82564871  0.28594690  0.93653769    -0.08600
C788        C  0.80187363  0.26933655  0.96307942    -0.06000
C789        C  0.80586719  0.23221359  0.97355667    -0.00100
C790        C  0.83680835  0.21188304  0.95895420    -0.08500
C791        C  0.84385567  0.17140360  0.96768801     0.61800
H792        H  0.88405265  0.21389658  0.92173568     0.12500
H793        H  0.77866643  0.28481005  0.97430986     0.12500
C794        C  0.81877719  0.32530225  0.92465283     0.62100
F795        F  0.87714493  0.15896857  0.95278183    -0.23100
F796        F  0.81610826  0.14991670  0.95291359    -0.20400
F797        F  0.84529582  0.16624188  0.00549858    -0.20100
F798        F  0.80625295  0.32592928  0.88872604    -0.20200
F799        F  0.85136514  0.34508974  0.92689563    -0.20500
F800        F  0.79245428  0.34244147  0.94696094    -0.23200
C801        C  0.81848696  0.63267771  0.89088772    -0.06000
C802        C  0.80206904  0.59835956  0.88429175    -0.00100
C803        C  0.78461545  0.57934358  0.91393094    -0.08600
C804        C  0.77990726  0.59779558  0.94803690    -0.06000
C805        C  0.79339654  0.63373211  0.95356201    -0.00100
C806        C  0.81465731  0.65087424  0.92493648    -0.08500
C807        C  0.83145618  0.68908137  0.92895270     0.61800
H808        H  0.83264072  0.64621928  0.86801405     0.12500
H809        H  0.76491288  0.58454074  0.97053443     0.12500
C810        C  0.77076786  0.54018157  0.90954867     0.62100
F811        F  0.84866926  0.70100396  0.89662281    -0.23100
F812        F  0.85792075  0.68856042  0.95615276    -0.20400
F813        F  0.80410016  0.71434303  0.93803178    -0.20100
F814        F  0.80044554  0.51733126  0.90142071    -0.20200
F815        F  0.74560261  0.53808268  0.88129711    -0.20500
F816        F  0.75354721  0.52736054  0.94150256    -0.23200
C817        C  0.87278236  0.46078413  0.81882096    -0.06000
C818        C  0.87687149  0.47533012  0.78310140    -0.00100
C819        C  0.89724719  0.45559782  0.75590798    -0.08600
C820        C  0.91091221  0.42060285  0.76500128    -0.06000
C821        C  0.90318119  0.40412449  0.79949149    -0.00100
C822        C  0.88545010  0.42532348  0.82764299    -0.08500
C823        C  0.87736059  0.41025787  0.86603297     0.61800
H824        H  0.85691278  0.47641964  0.83909382     0.12500
H825        H  0.92491877  0.40451901  0.74382582     0.12500
C826        C  0.90158254  0.46968739  0.71651741     0.62100
F827        F  0.86775155  0.43794693  0.89069264    -0.23100
F828        F  0.90827690  0.39251946  0.87958928    -0.20400
F829        F  0.84801612  0.38597899  0.86440466    -0.20100
F830        F  0.91960061  0.50324253  0.71647684    -0.20200
F831        F  0.86709896  0.47370805  0.70090963    -0.20500
F832        F  0.92198769  0.44576127  0.69444971    -0.23200
C833        C  0.66472132  0.63215121  0.75888092    -0.06000
C834        C  0.68250945  0.61366408  0.78774955    -0.00100
C835        C  0.66638578  0.61475711  0.82394242    -0.08600
C836        C  0.63597154  0.63816922  0.83056078    -0.06000
C837        C  0.62121877  0.65964650  0.80235295    -0.00100
C838        C  0.63363786  0.65446554  0.76548958    -0.08500
C839        C  0.61625512  0.67334284  0.73266731     0.61800
H840        H  0.67620955  0.63048181  0.73103819     0.12500
H841        H  0.62560733  0.64249384  0.85849554     0.12500
C842        C  0.68262955  0.59402237  0.85620818     0.62100
F843        F  0.60978021  0.64763296  0.70529591    -0.23100
F844        F  0.64032101  0.69976726  0.71888127    -0.20400
F845        F  0.58272855  0.68973606  0.74168470    -0.20100
F846        F  0.71816032  0.60632540  0.86228165    -0.20200
F847        F  0.68286787  0.55675979  0.84847850    -0.20500
F848        F  0.66232872  0.59912538  0.88860108    -0.23200
C849        C  0.13258227  0.67120018  0.36018886    -0.06000
C850        C  0.15454405  0.70025577  0.37271824    -0.00100
C851        C  0.14919742  0.73594799  0.35827533    -0.08600
C852        C  0.12569115  0.74046704  0.32829947    -0.06000
C853        C  0.10756332  0.71072257  0.31212962    -0.00100
C854        C  0.10843671  0.67594073  0.33023637    -0.08500
C855        C  0.08550033  0.64371360  0.31730318     0.61800
H856        H  0.13666144  0.64411023  0.37214226     0.12500
H857        H  0.12251949  0.76771679  0.31640154     0.12500
C858        C  0.16931913  0.76965781  0.37185279     0.62100
F859        F  0.09007225  0.61293326  0.33941398    -0.23100
F860        F  0.09580039  0.63442905  0.28157157    -0.20400
F861        F  0.04841942  0.65330173  0.31872420    -0.20100
F862        F  0.14395072  0.79756506  0.37847219    -0.20200
F863        F  0.18792656  0.76324980  0.40426157    -0.20500
F864        F  0.19444661  0.78101851  0.34494974    -0.23200
C865        C  0.26655805  0.58390009  0.32896928    -0.06000
C866        C  0.25101011  0.58372835  0.36495954    -0.00100
C867        C  0.22718689  0.55394578  0.37529985    -0.08600
C868        C  0.21764165  0.52770323  0.34850594    -0.06000
C869        C  0.23069948  0.52961620  0.31188441    -0.00100
C870        C  0.25669529  0.55745286  0.30208372    -0.08500
C871        C  0.27240222  0.56057016  0.26301982     0.61800
H872        H  0.28492146  0.60627108  0.32129307     0.12500
H873        H  0.19825409  0.50599438  0.35569024     0.12500
C874        C  0.21000178  0.55006627  0.41381148     0.62100
F875        F  0.29494888  0.59114886  0.25871597    -0.23100
F876        F  0.24383561  0.56356801  0.23809848    -0.20400
F877        F  0.29339689  0.52969692  0.25477184    -0.20100
F878        F  0.18133777  0.57508857  0.41821265    -0.20200
F879        F  0.23647690  0.55592573  0.44044836    -0.20500
F880        F  0.19550104  0.51521192  0.41965247    -0.23200
C881        C  0.32485301  0.80526883  0.36821842    -0.06000
C882        C  0.29034799  0.80653517  0.38642017    -0.00100
C883        C  0.26764746  0.83814560  0.38240919    -0.08600
C884        C  0.27815601  0.86518944  0.35621475    -0.06000
C885        C  0.31110595  0.86192366  0.33530401    -0.00100
C886        C  0.33595535  0.83272669  0.34308321    -0.08500
C887        C  0.37397985  0.83007146  0.32475372     0.61800
H888        H  0.34227099  0.78155824  0.37234886     0.12500
H889        H  0.26003099  0.88813349  0.35123430     0.12500
C890        C  0.23278710  0.84518422  0.40505460     0.62100
F891        F  0.39599632  0.80385690  0.34156537    -0.23100
F892        F  0.39189723  0.86360132  0.32718859    -0.20400
F893        F  0.37045259  0.82035711  0.28809078    -0.20100
F894        F  0.22643678  0.81846906  0.43161186    -0.20200
F895        F  0.20274991  0.84693087  0.38187996    -0.20500
F896        F  0.23597122  0.87865149  0.42295149    -0.23200
C897        C  0.44750889  0.73478753  0.41388906    -0.06000
C898        C  0.46041178  0.71310623  0.38425808    -0.00100
C899        C  0.43821904  0.68333934  0.37195902    -0.08600
C900        C  0.40215969  0.67928543  0.38667076    -0.06000
C901        C  0.38789904  0.70319268  0.41376383    -0.00100
C902        C  0.41141505  0.73054863  0.42884846    -0.08500
C903        C  0.39777274  0.75706716  0.45850396     0.61800
H904        H  0.46493277  0.75700688  0.42338372     0.12500
H905        H  0.38408753  0.65822130  0.37578718     0.12500
C906        C  0.45189782  0.65613079  0.34293766     0.62100
F907        F  0.42496601  0.78182534  0.46858734    -0.23100
F908        F  0.38709593  0.73775765  0.48982614    -0.20400
F909        F  0.36801767  0.77698005  0.44554210    -0.20100
F910        F  0.48798260  0.64586882  0.35014640    -0.20200
F911        F  0.45018694  0.67179768  0.30814425    -0.20500
F912        F  0.43057944  0.62444728  0.34293431    -0.23200
C913        C  0.64776333  0.69148151  0.21383103    -0.06000
C914        C  0.62132810  0.71881785  0.20732251    -0.00100
C915        C  0.61806894  0.73443576  0.17175478    -0.08600
C916        C  0.64425442  0.72433869  0.14429082    -0.06000
C917        C  0.67206676  0.69841316  0.15162375    -0.00100
C918        C  0.67308291  0.68062796  0.18636613    -0.08500
C919        C  0.70090140  0.65043333  0.19439892     0.61800
H920        H  0.64901733  0.67927413  0.24113694     0.12500
H921        H  0.64383052  0.73725236  0.11733523     0.12500
C922        C  0.58722538  0.76123717  0.16312584     0.62100
F923        F  0.69595420  0.63569896  0.22945698    -0.23100
F924        F  0.73651172  0.66426782  0.19183732    -0.20400
F925        F  0.69668535  0.62233650  0.16911246    -0.20100
F926        F  0.58983804  0.79190463  0.18537845    -0.20200
F927        F  0.55336318  0.74445414  0.16958328    -0.20500
F928        F  0.58867408  0.77271527  0.12660973    -0.23200
C929        C  0.45354380  0.88433542  0.26648446    -0.06000
C930        C  0.42681158  0.87145144  0.24182947    -0.00100
C931        C  0.43050984  0.83506509  0.22763065    -0.08600
C932        C  0.45779110  0.81176630  0.24231514    -0.06000
C933        C  0.48179270  0.82368766  0.26989276    -0.00100
C934        C  0.48132314  0.86134513  0.28050889    -0.08500
C935        C  0.51067127  0.87800281  0.30507830     0.61800
H936        H  0.45158688  0.91257066  0.27593608     0.12500
H937        H  0.45952419  0.78331842  0.23347532     0.12500
C938        C  0.40625525  0.82055880  0.19719392     0.62100
F939        F  0.50642031  0.91571911  0.30888093    -0.23100
F940        F  0.54514097  0.87186344  0.28927586    -0.20400
F941        F  0.50901182  0.86280365  0.34008597    -0.20100
F942        F  0.36949918  0.81997592  0.20850217    -0.20200
F943        F  0.41596905  0.78518229  0.18654198    -0.20500
F944        F  0.41075659  0.84310963  0.16683894    -0.23200
C945        C  0.56872325  0.17153081  0.75900806    -0.06000
C946        C  0.56447397  0.13441761  0.74849623    -0.00100
C947        C  0.53188857  0.12392314  0.72978338    -0.08600
C948        C  0.50643553  0.15146864  0.71949427    -0.06000
C949        C  0.51213893  0.18888314  0.72763417    -0.00100
C950        C  0.54330195  0.19908710  0.74863139    -0.08500
C951        C  0.55112330  0.23910223  0.75782760     0.61800
H952        H  0.59358002  0.17931426  0.77344810     0.12500
H953        H  0.48226774  0.14407833  0.70371376     0.12500
C954        C  0.52365878  0.08394085  0.72089683     0.62100
F955        F  0.58369561  0.24311494  0.77717292    -0.23100
F956        F  0.52258207  0.25320263  0.77945074    -0.20400
F957        F  0.55430738  0.25939580  0.72553528    -0.20100
F958        F  0.52883039  0.06243966  0.75200936    -0.20200
F959        F  0.54677703  0.07177356  0.69265469    -0.20500
F960        F  0.48742352  0.07927398  0.70974574    -0.23200
C961        C  0.33402920  0.27000859  0.84458597    -0.06000
C962        C  0.32307094  0.30683946  0.84934395    -0.00100
C963        C  0.33806558  0.33440976  0.82566123    -0.08600
C964        C  0.36269976  0.32375158  0.79727913    -0.06000
C965        C  0.37082283  0.28663506  0.79055371    -0.00100
C966        C  0.35730468  0.25925819  0.81497920    -0.08500
C967        C  0.36642079  0.21897554  0.80895430     0.61800
H968        H  0.32262343  0.24947656  0.86320510     0.12500
H969        H  0.37347098  0.34415294  0.77804660     0.12500
C970        C  0.32587234  0.37434388  0.82801898     0.62100
F971        F  0.35584787  0.19756912  0.83896555    -0.23100
F972        F  0.40418898  0.21461666  0.80346601    -0.20400
F973        F  0.34797306  0.20643663  0.77826792    -0.20100
F974        F  0.33441347  0.38846773  0.86223835    -0.20200
F975        F  0.28814784  0.37660170  0.82260755    -0.20500
F976        F  0.34318224  0.39610830  0.80146222    -0.23200
C977        C  0.35562873  0.44023180  0.67649085    -0.06000
C978        C  0.36942618  0.45983792  0.70702420    -0.00100
C979        C  0.40012985  0.44444556  0.72619797    -0.08600
C980        C  0.41299229  0.40890122  0.71639738    -0.06000
C981        C  0.39666884  0.38834870  0.68820624    -0.00100
C982        C  0.36873823  0.40491912  0.66671397    -0.08500
C983        C  0.35219254  0.38514872  0.63388191     0.61800
H984        H  0.33297132  0.45190209  0.66107080     0.12500
H985        H  0.43460619  0.39588909  0.73227447     0.12500
C986        C  0.41956887  0.46486962  0.75689665     0.62100
F987        F  0.33297349  0.40917353  0.61138689    -0.23100
F988        F  0.32794169  0.35820365  0.64617404    -0.20400
F989        F  0.38001877  0.36910396  0.61264664    -0.20100
F990        F  0.39664198  0.46721666  0.78777940    -0.20200
F991        F  0.42903118  0.49974516  0.74476856    -0.20500
F992        F  0.45186606  0.44730727  0.76730370    -0.23200
C993        C  0.28168099  0.59131493  0.54894141    -0.06000
C994        C  0.29768783  0.62545945  0.53960841    -0.00100
C995        C  0.32605174  0.63942937  0.56258436    -0.08600
C996        C  0.33041274  0.62411435  0.59790710    -0.06000
C997        C  0.31029510  0.59300514  0.60953028    -0.00100
C998        C  0.28991137  0.57343839  0.58254234    -0.08500
C999        C  0.27908611  0.53328251  0.58693644     0.61800
H1000       H  0.26257062  0.57850906  0.53003031     0.12500
H1001       H  0.34874294  0.63754812  0.61711747     0.12500
C1002       C  0.35243959  0.66966381  0.55006035     0.62100
F1003       F  0.28268785  0.51534484  0.55330466    -0.23100
F1004       F  0.24273850  0.53035231  0.59884793    -0.20400
F1005       F  0.30188207  0.51532131  0.61155506    -0.20100
F1006       F  0.33560592  0.70374315  0.55313006    -0.20200
F1007       F  0.36346490  0.66354331  0.51379766    -0.20500
F1008       F  0.38409802  0.67010876  0.57124686    -0.23200
C1009       C  0.28013421  0.48524595  0.85581826    -0.06000
C1010       C  0.26261560  0.48710212  0.82122226    -0.00100
C1011       C  0.23124140  0.46446576  0.81508659    -0.08600
C1012       C  0.22169566  0.43789542  0.84181765    -0.06000
C1013       C  0.24211005  0.43309756  0.87426673    -0.00100
C1014       C  0.27033641  0.45870951  0.88269070    -0.08500
C1015       C  0.29104958  0.45739798  0.91898836     0.61800
H1016       H  0.30311960  0.50353938  0.86102289     0.12500
H1017       H  0.19938445  0.41880367  0.83636922     0.12500
C1018       C  0.20798896  0.46743462  0.78051204     0.62100
F1019       F  0.31656102  0.48568698  0.92167813    -0.23100
F1020       F  0.31000049  0.42449062  0.92218209    -0.20400
F1021       F  0.26613412  0.46080100  0.94821266    -0.20100
F1022       F  0.22748247  0.45362900  0.75037187    -0.20200
F1023       F  0.19870138  0.50385454  0.77424186    -0.20500
F1024       F  0.17531458  0.44766665  0.78388242    -0.23200
C1025       C  0.32752762  0.66710981  0.85117769    -0.06000
C1026       C  0.29723843  0.65129371  0.83322317    -0.00100
C1027       C  0.26098253  0.66010158  0.84569879    -0.08600
C1028       C  0.25624186  0.68874202  0.87148171    -0.06000
C1029       C  0.28637010  0.70815754  0.88593766    -0.00100
C1030       C  0.32278676  0.69533895  0.87761080    -0.08500
C1031       C  0.35668907  0.71329477  0.89381920     0.61800
H1032       H  0.35519031  0.65897276  0.84241035     0.12500
H1033       H  0.22848875  0.69717462  0.87924182     0.12500
C1034       C  0.22733603  0.63997858  0.83142053     0.62100
F1035       F  0.38914760  0.69566569  0.88312986    -0.23100
F1036       F  0.35451876  0.71243598  0.93202524    -0.20400
F1037       F  0.35863147  0.74918523  0.88161610    -0.20100
F1038       F  0.23393915  0.60241566  0.83068792    -0.20200
F1039       F  0.21965101  0.65226546  0.79621834    -0.20500
F1040       F  0.19641625  0.64604714  0.85371514    -0.23200
C1041       C  0.47150381  0.65610929  0.78316234    -0.06000
C1042       C  0.47245410  0.69036184  0.76505544    -0.00100
C1043       C  0.44956587  0.69617101  0.73407624    -0.08600
C1044       C  0.42420811  0.66841223  0.72453265    -0.06000
C1045       C  0.42070580  0.63559012  0.74506020    -0.00100
C1046       C  0.44582930  0.62862802  0.77403872    -0.08500
C1047       C  0.44434859  0.59353572  0.79686708     0.61800
H1048       H  0.49005762  0.65172495  0.80602207     0.12500
H1049       H  0.40509190  0.67311395  0.70219951     0.12500
C1050       C  0.45015412  0.73209987  0.71252351     0.62100
F1051       F  0.47118790  0.59284972  0.82382900    -0.23100
F1052       F  0.45029274  0.56360882  0.77403402    -0.20400
F1053       F  0.41018037  0.59035473  0.81436967    -0.20100
F1054       F  0.48464599  0.73695622  0.69610422    -0.20200
F1055       F  0.44254598  0.76125995  0.73604987    -0.20500
F1056       F  0.42408979  0.73253703  0.68481979    -0.23200
C1057       C  0.61442438  0.56384782  0.32114281    -0.06000
C1058       C  0.61708626  0.55218867  0.28388441    -0.00100
C1059       C  0.60454751  0.57650771  0.25564651    -0.08600
C1060       C  0.59115914  0.61149562  0.26586707    -0.06000
C1061       C  0.59059411  0.62338095  0.30261033    -0.00100
C1062       C  0.60186888  0.59936298  0.33090308    -0.08500
C1063       C  0.60151918  0.61184189  0.37092393     0.61800
H1064       H  0.62367183  0.54541420  0.34267832     0.12500
H1065       H  0.58264135  0.63091868  0.24486172     0.12500
C1066       C  0.60675422  0.56705443  0.21470508     0.62100
F1067       F  0.61215670  0.58394061  0.39464320    -0.23100
F1068       F  0.56616926  0.62303360  0.38107283    -0.20400
F1069       F  0.62566622  0.64103900  0.37507823    -0.20100
F1070       F  0.58495672  0.53662938  0.20767961    -0.20200
F1071       F  0.64311756  0.55996062  0.20440009    -0.20500
F1072       F  0.59425339  0.59557362  0.19267676    -0.23200
C1073       C  0.70301512  0.28284717  0.16449113    -0.06000
C1074       C  0.70499763  0.29040370  0.12640170    -0.00100
C1075       C  0.69789216  0.32681644  0.11406282    -0.08600
C1076       C  0.69072583  0.35460327  0.14076455    -0.06000
C1077       C  0.68994919  0.34684071  0.17894686    -0.00100
C1078       C  0.69506245  0.30994038  0.19091285    -0.08500
C1079       C  0.69040208  0.29826923  0.23121104     0.61800
H1080       H  0.70723419  0.25479342  0.17369352     0.12500
H1081       H  0.68589300  0.38271658  0.13203741     0.12500
C1082       C  0.69843517  0.33645377  0.07326706     0.62100
F1083       F  0.68993477  0.26034644  0.23526185    -0.23100
F1084       F  0.65715031  0.31149738  0.24517099    -0.20400
F1085       F  0.71932618  0.31161178  0.25193101    -0.20100
F1086       F  0.66966820  0.31870063  0.05584120    -0.20200
F1087       F  0.73180269  0.32567161  0.05735967    -0.20500
F1088       F  0.69429816  0.37392660  0.06752449    -0.23200
C1089       C  0.53910315  0.38738919  0.22651158    -0.06000
C1090       C  0.56362134  0.37593478  0.25406006    -0.00100
C1091       C  0.55712435  0.34127476  0.27139925    -0.08600
C1092       C  0.53149755  0.31676499  0.25581650    -0.06000
C1093       C  0.50944375  0.32680734  0.22581462    -0.00100
C1094       C  0.51123049  0.36389103  0.21291488    -0.08500
C1095       C  0.48312496  0.37937386  0.18618744     0.61800
H1096       H  0.54303424  0.41435545  0.21426003     0.12500
H1097       H  0.52888914  0.28925161  0.26725323     0.12500
C1098       C  0.57588606  0.32892680  0.30658116     0.62100
F1099       F  0.48650285  0.41717700  0.18232905    -0.23100
F1100       F  0.44779048  0.37224506  0.19955220    -0.20400
F1101       F  0.48773530  0.36382879  0.15157396    -0.20100
F1102       F  0.59281489  0.35763905  0.32480762    -0.20200
F1103       F  0.60183049  0.30204303  0.29830247    -0.20500
F1104       F  0.54965955  0.31424421  0.33069091    -0.23200
C1105       C  0.77047518  0.56869162  0.15618653    -0.06000
C1106       C  0.74930759  0.57544407  0.12449013    -0.00100
C1107       C  0.71844942  0.55230578  0.11759187    -0.08600
C1108       C  0.70796264  0.52592532  0.14450748    -0.06000
C1109       C  0.72706076  0.52168897  0.17792808    -0.00100
C1110       C  0.76028011  0.54195956  0.18282686    -0.08500
C1111       C  0.78543000  0.53522584  0.21546427     0.61800
H1112       H  0.79440483  0.58596514  0.16087864     0.12500
H1113       H  0.68324114  0.50964540  0.14045305     0.12500
C1114       C  0.69527256  0.55655741  0.08312981     0.62100
F1115       F  0.81897079  0.55338101  0.21128548    -0.23100
F1116       F  0.79284480  0.49796753  0.21848397    -0.20400
F1117       F  0.76877291  0.54765780  0.24775874    -0.20100
F1118       F  0.71743700  0.55152078  0.05201431    -0.20200
F1119       F  0.67948677  0.59125121  0.08226436    -0.20500
F1120       F  0.66689091  0.53097355  0.08192153    -0.23200
C1121       C  0.70630146  0.41746776  0.45278916    -0.06000
C1122       C  0.69324505  0.38162308  0.46008519    -0.00100
C1123       C  0.66698339  0.36619852  0.43536605    -0.08600
C1124       C  0.66067984  0.38393306  0.40150885    -0.06000
C1125       C  0.67759460  0.41750861  0.39195118    -0.00100
C1126       C  0.69772044  0.43631954  0.41967032    -0.08500
C1127       C  0.70894226  0.47634393  0.41531588     0.61800
H1128       H  0.72438973  0.43032365  0.47260231     0.12500
H1129       H  0.64350950  0.37035343  0.38140626     0.12500
C1130       C  0.64491610  0.33142049  0.44402403     0.62100
F1131       F  0.71817325  0.49170453  0.44898335    -0.23100
F1132       F  0.67968498  0.49642127  0.40133779    -0.20400
F1133       F  0.73922142  0.47942285  0.39175271    -0.20100
F1134       F  0.63047006  0.33337003  0.47955292    -0.20200
F1135       F  0.66710902  0.30055272  0.44030264    -0.20500
F1136       F  0.61531463  0.32722072  0.42043726    -0.23200
C1137       C  0.58057554  0.28744556  0.56580441    -0.06000
C1138       C  0.60200850  0.31339238  0.58463233    -0.00100
C1139       C  0.58530139  0.33433002  0.61323435    -0.08600
C1140       C  0.54981425  0.32437604  0.62609582    -0.06000
C1141       C  0.52972648  0.29517671  0.61037914    -0.00100
C1142       C  0.54460804  0.27773719  0.57816629    -0.08500
C1143       C  0.52387691  0.24796083  0.55770997     0.61800
H1144       H  0.59354003  0.27246884  0.54318556     0.12500
H1145       H  0.53803933  0.33922299  0.64947798     0.12500
C1146       C  0.60366681  0.36729078  0.63093641     0.62100
F1147       F  0.54380284  0.23481702  0.52747036    -0.23100
F1148       F  0.49114314  0.26232847  0.54485480    -0.20400
F1149       F  0.51654748  0.21857078  0.58101953    -0.20100
F1150       F  0.63507925  0.37853887  0.61178827    -0.20200
F1151       F  0.61297710  0.35868140  0.66686424    -0.20500
F1152       F  0.57919179  0.39665465  0.63149867    -0.23200
C1153       C  0.72859276  0.18054643  0.62787954    -0.06000
C1154       C  0.69921888  0.19918868  0.61095818    -0.00100
C1155       C  0.66274080  0.18454987  0.61418354    -0.08600
C1156       C  0.65681880  0.15343576  0.63660550    -0.06000
C1157       C  0.68576359  0.13680759  0.65566971    -0.00100
C1158       C  0.72260123  0.14901187  0.64967725    -0.08500
C1159       C  0.75614323  0.13107547  0.66702555     0.61800
H1160       H  0.75646613  0.19145837  0.62503875     0.12500
H1161       H  0.62891818  0.14357331  0.64197379     0.12500
C1162       C  0.62946765  0.20363178  0.59763385     0.62100
F1163       F  0.78300368  0.12502184  0.64000583    -0.23100
F1164       F  0.74806406  0.09751549  0.68326145    -0.20400
F1165       F  0.77042124  0.15431705  0.69351198    -0.20100
F1166       F  0.63342727  0.20553485  0.55960338    -0.20200
F1167       F  0.62650382  0.23856290  0.61228890    -0.20500
F1168       F  0.59665480  0.18528524  0.60546854    -0.23200
C1169       C  0.83750315  0.27257133  0.64813393    -0.06000
C1170       C  0.83530525  0.30718546  0.63108073    -0.00100
C1171       C  0.86046082  0.33520202  0.64106647    -0.08600
C1172       C  0.88435208  0.32881056  0.67090139    -0.06000
C1173       C  0.88426009  0.29512066  0.69001296    -0.00100
C1174       C  0.86238825  0.26566236  0.67684411    -0.08500
C1175       C  0.86236661  0.22734433  0.69360454     0.61800
H1176       H  0.81827203  0.25116192  0.64012298     0.12500
H1177       H  0.90127454  0.35102293  0.68133679     0.12500
C1178       C  0.86024334  0.37236050  0.62190784     0.62100
F1179       F  0.86527244  0.20149193  0.66560916    -0.23100
F1180       F  0.82945030  0.22169489  0.71281520    -0.20400
F1181       F  0.89154900  0.22164549  0.71725074    -0.20100
F1182       F  0.82628423  0.38928835  0.62729555    -0.20200
F1183       F  0.86669304  0.36755751  0.58442534    -0.20500
F1184       F  0.88737232  0.39550818  0.63530059    -0.23200
C1185       C  0.75005615  0.45477851  0.62503710    -0.06000
C1186       C  0.73815623  0.42116467  0.64029062    -0.00100
C1187       C  0.73494083  0.41800902  0.67955739    -0.08600
C1188       C  0.74363318  0.44872722  0.70173894    -0.06000
C1189       C  0.75728038  0.48155184  0.68642471    -0.00100
C1190       C  0.76010920  0.48488943  0.64735212    -0.08500
C1191       C  0.77409850  0.51996848  0.62913833     0.61800
H1192       H  0.75288347  0.45678417  0.59524319     0.12500
H1193       H  0.74220357  0.44656463  0.73159904     0.12500
C1194       C  0.72535328  0.38176907  0.69848217     0.62100
F1195       F  0.76954118  0.51941672  0.59119606    -0.23100
F1196       F  0.81144041  0.52421369  0.63584139    -0.20400
F1197       F  0.75471917  0.54987138  0.64309897    -0.20100
F1198       F  0.75023652  0.35490057  0.68740756    -0.20200
F1199       F  0.68983553  0.37117158  0.68959737    -0.20500
F1200       F  0.72700621  0.38431178  0.73662880    -0.23200
C1201       C  0.84528858  0.37236837  0.31620004    -0.06000
C1202       C  0.84617736  0.34321029  0.29068093    -0.00100
C1203       C  0.82208583  0.34389908  0.26007612    -0.08600
C1204       C  0.79575632  0.37211015  0.25774994    -0.06000
C1205       C  0.79207286  0.39869803  0.28544456    -0.00100
C1206       C  0.81786378  0.39997110  0.31442749    -0.08500
C1207       C  0.81478831  0.42906206  0.34427038     0.61800
H1208       H  0.86420084  0.37169739  0.33917402     0.12500
H1209       H  0.77560569  0.37171712  0.23583738     0.12500
C1210       C  0.82350899  0.31461925  0.23030553     0.62100
F1211       F  0.84367959  0.42690220  0.36894463    -0.23100
F1212       F  0.78190270  0.42453143  0.36378446    -0.20400
F1213       F  0.81538008  0.46365830  0.32822145    -0.20100
F1214       F  0.80967982  0.28177582  0.24403826    -0.20200
F1215       F  0.85979002  0.30995625  0.21855089    -0.20500
F1216       F  0.80270927  0.32434112  0.19993543    -0.23200
C1217       C  0.85981102  0.25426589  0.44144475    -0.06000
C1218       C  0.84345737  0.24475260  0.40775693    -0.00100
C1219       C  0.80410659  0.24243576  0.40610575    -0.08600
C1220       C  0.78277743  0.25170056  0.43779593    -0.06000
C1221       C  0.79926608  0.26413567  0.47030950    -0.00100
C1222       C  0.83835785  0.26405378  0.47280473    -0.08500
C1223       C  0.85730315  0.27494320  0.50828667     0.61800
H1224       H  0.88976163  0.25580134  0.44246205     0.12500
H1225       H  0.75279907  0.25187125  0.43662948     0.12500
C1226       C  0.78432803  0.23308282  0.37054746     0.62100
F1227       F  0.89495273  0.26765498  0.50674636    -0.23100
F1228       F  0.84217835  0.25535696  0.53766799    -0.20400
F1229       F  0.85258567  0.31220134  0.51446435    -0.20100
F1230       F  0.79420005  0.19819385  0.35904797    -0.20200
F1231       F  0.79370792  0.25829728  0.34336765    -0.20500
F1232       F  0.74615807  0.23371261  0.37502454    -0.23200
C1233       C  0.04320445  0.30545487  0.23558067    -0.06000
C1234       C  0.01155313  0.31947931  0.25352423    -0.00100
C1235       C  0.00941675  0.35789039  0.26062903    -0.08600
C1236       C  0.04069533  0.38013042  0.25315404    -0.06000
C1237       C  0.07382315  0.36555945  0.23832202    -0.00100
C1238       C  0.07453911  0.32765587  0.22782344    -0.08500
C1239       C  0.10874925  0.30974100  0.21063402     0.61800
H1240       H  0.04412046  0.27617746  0.22994860     0.12500
H1241       H  0.03993504  0.40908443  0.26030953     0.12500
C1242       C  0.97416438  0.37553781  0.27576572     0.62100
F1243       F  0.10345670  0.27262391  0.20377748    -0.23100
F1244       F  0.13835359  0.31294181  0.23427741    -0.20400
F1245       F  0.11726029  0.32651894  0.17723388    -0.20100
F1246       F  0.96851196  0.36563818  0.31231237    -0.20200
F1247       F  0.94427238  0.36424290  0.25513752    -0.20500
F1248       F  0.97577186  0.41360834  0.27405050    -0.23200
C1249       C  0.85349567  0.16242884  0.14230109    -0.06000
C1250       C  0.83502547  0.19027283  0.12345510    -0.00100
C1251       C  0.84191507  0.22762292  0.13208471    -0.08600
C1252       C  0.86429167  0.23558854  0.16242571    -0.06000
C1253       C  0.87966822  0.20757597  0.18406026    -0.00100
C1254       C  0.87523193  0.17024335  0.17309915    -0.08500
C1255       C  0.88870453  0.13839371  0.19632168     0.61800
H1256       H  0.84721137  0.13412148  0.13522991     0.12500
H1257       H  0.86833430  0.26402265  0.17031745     0.12500
C1258       C  0.82408354  0.25977006  0.11224833     0.62100
F1259       F  0.88216097  0.10461724  0.17993195    -0.23100
F1260       F  0.86992238  0.13884844  0.22978146    -0.20400
F1261       F  0.92638604  0.14129978  0.20160761    -0.20100
F1262       F  0.80757897  0.24950497  0.07961509    -0.20200
F1263       F  0.85074722  0.28590200  0.10370841    -0.20500
F1264       F  0.79762214  0.27561499  0.13524261    -0.23200
C1265       C  0.29648713  0.12307065  0.66752488    -0.06000
C1266       C  0.29114236  0.11394232  0.70492911    -0.00100
C1267       C  0.31870610  0.12344488  0.73067741    -0.08600
C1268       C  0.34947527  0.14456862  0.71837157    -0.06000
C1269       C  0.35228703  0.15725669  0.68169401    -0.00100
C1270       C  0.32684683  0.14424799  0.65537806    -0.08500
C1271       C  0.32916438  0.15576323  0.61513856     0.61800
H1272       H  0.27517268  0.11571444  0.64803022     0.12500
H1273       H  0.36974855  0.15405335  0.73794420     0.12500
C1274       C  0.31395685  0.11384486  0.77122352     0.62100
F1275       F  0.31204374  0.13011976  0.59288927    -0.23100
F1276       F  0.36569796  0.15861196  0.60336380    -0.20400
F1277       F  0.31173032  0.18934162  0.61083833    -0.20100
F1278       F  0.31028213  0.07614687  0.77515148    -0.20200
F1279       F  0.28256356  0.13092687  0.78532287    -0.20500
F1280       F  0.34398967  0.12506516  0.79173752    -0.23200
C1281       C  0.15612119  0.19733632  0.88297196    -0.06000
C1282       C  0.19298048  0.20430156  0.89251677    -0.00100
C1283       C  0.22156280  0.18158386  0.87801219    -0.08600
C1284       C  0.21245900  0.15476803  0.85174851    -0.06000
C1285       C  0.17616765  0.15050169  0.83920829    -0.00100
C1286       C  0.14705745  0.17103869  0.85610919    -0.08500
C1287       C  0.10712350  0.16763494  0.84389902     0.61800
H1288       H  0.13474710  0.21522943  0.89430484     0.12500
H1289       H  0.23438378  0.13829414  0.83932595     0.12500
C1290       C  0.26223835  0.18588911  0.88670523     0.62100
F1291       F  0.08389964  0.19206554  0.86235625    -0.23100
F1292       F  0.09439210  0.13243888  0.85101888    -0.20400
F1293       F  0.10487853  0.17502747  0.80651892    -0.20100
F1294       F  0.26909327  0.21284783  0.91261478    -0.20200
F1295       F  0.28127327  0.19456641  0.85444678    -0.20500
F1296       F  0.27567129  0.15287122  0.90015163    -0.23200
C1297       C  0.05487447  0.16897754  0.72625302    -0.06000
C1298       C  0.05664807  0.13536992  0.74544928    -0.00100
C1299       C  0.02741705  0.12626983  0.77046852    -0.08600
C1300       C  0.00111880  0.15370565  0.77980408    -0.06000
C1301       C  0.00246958  0.18928966  0.76416589    -0.00100
C1302       C  0.02795104  0.19587157  0.73453631    -0.08500
C1303       C  0.02769158  0.23109187  0.71182376     0.61800
H1304       H  0.07639225  0.17505101  0.70594467     0.12500
H1305       H  0.98035492  0.14797296  0.80092449     0.12500
C1306       C  0.02429504  0.08839005  0.78796354     0.62100
F1307       F  0.04851664  0.22749333  0.67954756    -0.23100
F1308       F  0.04246735  0.25971330  0.73201351    -0.20400
F1309       F  0.99183038  0.23963040  0.70186373    -0.20100
F1310       F  0.05448870  0.08157290  0.81000617    -0.20200
F1311       F  0.02271919  0.06210486  0.76042907    -0.20500
F1312       F  0.99256403  0.08496529  0.80968742    -0.23200
C1313       C  0.19980567  0.98409309  0.85123178    -0.06000
C1314       C  0.21705910  0.98556272  0.81618159    -0.00100
C1315       C  0.24635115  0.96037485  0.80820817    -0.08600
C1316       C  0.25501362  0.93311791  0.83463044    -0.06000
C1317       C  0.23555057  0.92989849  0.86852163    -0.00100
C1318       C  0.20828702  0.95699700  0.87751757    -0.08500
C1319       C  0.18715143  0.95761142  0.91419198     0.61800
H1320       H  0.17784511  0.00350962  0.85751065     0.12500
H1321       H  0.27608100  0.91283238  0.82802776     0.12500
C1322       C  0.26837878  0.96156695  0.77209489     0.62100
F1323       F  0.16826566  0.99042133  0.91967182    -0.23100
F1324       F  0.21155575  0.95384733  0.94285635    -0.20400
F1325       F  0.16149753  0.92936021  0.91539089    -0.20100
F1326       F  0.28100172  0.99697094  0.76556030    -0.20200
F1327       F  0.24633725  0.95033163  0.74326015    -0.20500
F1328       F  0.29899136  0.93857114  0.77287038    -0.23200
C1329       C  0.32421924  0.24317469  0.33543696    -0.06000
C1330       C  0.32016844  0.20649712  0.34729152    -0.00100
C1331       C  0.34581154  0.17956209  0.33402512    -0.08600
C1332       C  0.37231040  0.19010752  0.30708413    -0.06000
C1333       C  0.37395528  0.22618998  0.29331739    -0.00100
C1334       C  0.35152757  0.25374624  0.30968743    -0.08500
C1335       C  0.35520318  0.29443471  0.30082492     0.61800
H1336       H  0.30545106  0.26399663  0.34591239     0.12500
H1337       H  0.39005273  0.16949346  0.29433595     0.12500
C1338       C  0.34400762  0.13944986  0.34592662     0.62100
F1339       F  0.32436372  0.30609244  0.28181791    -0.23100
F1340       F  0.38668999  0.30224539  0.28004215    -0.20400
F1341       F  0.35740893  0.31416001  0.33344848    -0.20100
F1342       F  0.30945515  0.12516477  0.33834479    -0.20200
F1343       F  0.35073837  0.13674689  0.38336761    -0.20500
F1344       F  0.37014380  0.11800614  0.32756817    -0.23200
C1345       C  0.21993518  0.07843862  0.32607638    -0.06000
C1346       C  0.23605428  0.08111650  0.36128564    -0.00100
C1347       C  0.26174228  0.05347324  0.37197288    -0.08600
C1348       C  0.27210769  0.02618316  0.34619354    -0.06000
C1349       C  0.25829734  0.02537693  0.31008588    -0.00100
C1350       C  0.23059782  0.05113221  0.30018806    -0.08500
C1351       C  0.21377805  0.05121301  0.26195810     0.61800
H1352       H  0.19994618  0.09917903  0.31826088     0.12500
H1353       H  0.29251998  0.00571728  0.35366811     0.12500
C1354       C  0.27918435  0.05285333  0.40987020     0.62100
F1355       F  0.18827666  0.07935917  0.25779129    -0.23100
F1356       F  0.19565853  0.01824157  0.25606142    -0.20400
F1357       F  0.24135712  0.05583025  0.23537926    -0.20100
F1358       F  0.25155886  0.04864818  0.43624690    -0.20200
F1359       F  0.29840665  0.08514515  0.41597956    -0.20500
F1360       F  0.30382576  0.02392132  0.41389523    -0.23200
C1361       C  0.31421575  0.26657649  0.57541318    -0.06000
C1362       C  0.35187887  0.25897084  0.56922048    -0.00100
C1363       C  0.36348006  0.24494086  0.53447673    -0.08600
C1364       C  0.33652360  0.23486978  0.50876530    -0.06000
C1365       C  0.29832928  0.23849656  0.51647814    -0.00100
C1366       C  0.28697387  0.25659410  0.54983446    -0.08500
C1367       C  0.24659161  0.26441988  0.55975614     0.61800
H1368       H  0.30592566  0.27798216  0.60193052     0.12500
H1369       H  0.34542001  0.22264796  0.48282180     0.12500
C1370       C  0.40413864  0.24163592  0.52410482     0.62100
F1371       F  0.24295009  0.28496780  0.59185023    -0.23100
F1372       F  0.22776578  0.23166472  0.56538557    -0.20400
F1373       F  0.23029075  0.28432317  0.53168159    -0.20100
F1374       F  0.41993842  0.21226409  0.54243555    -0.20200
F1375       F  0.42191839  0.27390521  0.53350411    -0.20500
F1376       F  0.40934670  0.23621528  0.48648750    -0.23200
C1377       C  0.04197187  0.18348736  0.36084744    -0.06000
C1378       C  0.02429837  0.21678934  0.37008352    -0.00100
C1379       C  0.04110733  0.24096395  0.39542273    -0.08600
C1380       C  0.07628766  0.23181927  0.40895644    -0.06000
C1381       C  0.09543070  0.19973736  0.39762230    -0.00100
C1382       C  0.07722612  0.17428569  0.37424490    -0.08500
C1383       C  0.09469253  0.13789776  0.36268082     0.61800
H1384       H  0.02853219  0.16536399  0.34140868     0.12500
H1385       H  0.08993965  0.25098367  0.42714306     0.12500
C1386       C  0.02300954  0.27719165  0.40654131     0.62100
F1387       F  0.06927714  0.11483717  0.34618009    -0.23100
F1388       F  0.10824036  0.11983192  0.39336228    -0.20400
F1389       F  0.12319762  0.14407198  0.33745817    -0.20100
F1390       F  0.98992367  0.27025998  0.42500386    -0.20200
F1391       F  0.01624357  0.29824209  0.37545129    -0.20500
F1392       F  0.04515014  0.29764530  0.42974371    -0.23200
C1393       C  0.16199382  0.14486774  0.55896581    -0.06000
C1394       C  0.19269785  0.13150029  0.53851249    -0.00100
C1395       C  0.21486899  0.10345703  0.55459237    -0.08600
C1396       C  0.20718954  0.09227966  0.59111485    -0.06000
C1397       C  0.17836124  0.10772588  0.61264514    -0.00100
C1398       C  0.15427566  0.13360179  0.59568030    -0.08500
C1399       C  0.12090123  0.15005037  0.61585605     0.61800
H1400       H  0.14482611  0.16582474  0.54657241     0.12500
H1401       H  0.22515818  0.07212032  0.60367281     0.12500
C1402       C  0.24649307  0.08474746  0.53376488     0.62100
F1403       F  0.09882915  0.17041391  0.59241880    -0.23100
F1404       F  0.13255811  0.17329491  0.64362771    -0.20400
F1405       F  0.09921507  0.12222028  0.63082187    -0.20100
F1406       F  0.27590001  0.10875605  0.52914444    -0.20200
F1407       F  0.23413245  0.07330028  0.49978949    -0.20500
F1408       F  0.25946459  0.05397014  0.55218463    -0.23200
C1409       C  0.15684691  0.32029055  0.38451234    -0.06000
C1410       C  0.19274300  0.31161194  0.39576028    -0.00100
C1411       C  0.22239275  0.33545194  0.38643485    -0.08600
C1412       C  0.21599106  0.36421796  0.36094163    -0.06000
C1413       C  0.18062161  0.37004081  0.34622334    -0.00100
C1414       C  0.15019317  0.34941540  0.36002956    -0.08500
C1415       C  0.11117970  0.35644345  0.34688441     0.61800
H1416       H  0.13443366  0.30192713  0.39246160     0.12500
H1417       H  0.23883982  0.38088766  0.35076461     0.12500
C1418       C  0.26038438  0.32980854  0.40282861     0.62100
F1419       F  0.08529782  0.33586182  0.36647541    -0.23100
F1420       F  0.10877176  0.34707044  0.31006922    -0.20400
F1421       F  0.10241287  0.39326866  0.35137650    -0.20100
F1422       F  0.27320355  0.29477058  0.39530529    -0.20200
F1423       F  0.25795322  0.33426156  0.44076077    -0.20500
F1424       F  0.28595627  0.35480689  0.38890143    -0.23200
C1425       C  0.14580414  0.64486586  0.67359772    -0.06000
C1426       C  0.12735790  0.65638661  0.70583308    -0.00100
C1427       C  0.13740004  0.64106324  0.74028920    -0.08600
C1428       C  0.16732835  0.61593541  0.74147878    -0.06000
C1429       C  0.18899088  0.60858414  0.70975697    -0.00100
C1430       C  0.17696059  0.62181572  0.67499135    -0.08500
C1431       C  0.19862896  0.61436862  0.63963003     0.61800
H1432       H  0.13820499  0.65736583  0.64752446     0.12500
H1433       H  0.17647890  0.60519279  0.76775041     0.12500
C1434       C  0.11903356  0.65416262  0.77579527     0.62100
F1435       F  0.17706205  0.61970417  0.60872305    -0.23100
F1436       F  0.21060668  0.57833270  0.63934293    -0.20400
F1437       F  0.22881392  0.63772298  0.63726719    -0.20100
F1438       F  0.08093505  0.65196886  0.77286963    -0.20200
F1439       F  0.12897818  0.69031576  0.78217063    -0.20500
F1440       F  0.12959322  0.63320394  0.80585902    -0.23200
C1441       C  0.12797417  0.74770455  0.56162355    -0.06000
C1442       C  0.14361648  0.75426089  0.59631435    -0.00100
C1443       C  0.18288729  0.75346780  0.59963644    -0.08600
C1444       C  0.20487807  0.74635785  0.56791331    -0.06000
C1445       C  0.18906750  0.73831042  0.53377348    -0.00100
C1446       C  0.15003784  0.73918153  0.53033752    -0.08500
C1447       C  0.13176417  0.73028822  0.49397022     0.61800
H1448       H  0.09806377  0.74785789  0.55956242     0.12500
H1449       H  0.23474500  0.74464230  0.56998765     0.12500
C1450       C  0.20168112  0.75719901  0.63676164     0.62100
F1451       F  0.09398892  0.73692749  0.49528384    -0.23100
F1452       F  0.13715513  0.69354658  0.48555547    -0.20400
F1453       F  0.14701977  0.75186952  0.46621702    -0.20100
F1454       F  0.18776471  0.73115793  0.66113847    -0.20200
F1455       F  0.19564735  0.79200262  0.65089822    -0.20500
F1456       F  0.23961722  0.75191740  0.63394943    -0.23200
C1457       C  0.06951894  0.91684346  0.70855120    -0.06000
C1458       C  0.09442196  0.89005703  0.69525219    -0.00100
C1459       C  0.13022870  0.90123789  0.68274452    -0.08600
C1460       C  0.14093391  0.93810567  0.68758371    -0.06000
C1461       C  0.11745103  0.96392152  0.70472453    -0.00100
C1462       C  0.08049426  0.95368485  0.71378596    -0.08500
C1463       C  0.05273400  0.98132980  0.72899189     0.61800
H1464       H  0.04206545  0.90818239  0.71737877     0.12500
H1465       H  0.16892228  0.94642295  0.68026649     0.12500
C1466       C  0.15759146  0.87458299  0.66497161     0.62100
F1467       F  0.01703201  0.96738649  0.72925362    -0.23100
F1468       F  0.05317366  0.01263770  0.70717038    -0.20400
F1469       F  0.06150492  0.99051192  0.76488829    -0.20100
F1470       F  0.14008917  0.85415313  0.63813846    -0.20200
F1471       F  0.17193100  0.85142891  0.69153454    -0.20500
F1472       F  0.18700351  0.89278934  0.64809020    -0.23200
C1473       C  0.97093490  0.66530077  0.74737647    -0.06000
C1474       C  0.96391667  0.70333667  0.74687670    -0.00100
C1475       C  0.92777024  0.71639904  0.75519108    -0.08600
C1476       C  0.89929765  0.69057719  0.76178797    -0.06000
C1477       C  0.90568971  0.65250311  0.75879453    -0.00100
C1478       C  0.94232610  0.63950334  0.75311539    -0.08500
C1479       C  0.95111224  0.59865965  0.75205522     0.61800
H1480       H  0.99873764  0.65584656  0.74077683     0.12500
H1481       H  0.87114480  0.69999933  0.76648803     0.12500
C1482       C  0.91872331  0.75720317  0.75412921     0.62100
F1483       F  0.98886489  0.59222698  0.75388397    -0.23100
F1484       F  0.93845066  0.58362291  0.71951090    -0.20400
F1485       F  0.93426338  0.58108131  0.78180263    -0.20100
F1486       F  0.92588907  0.77091257  0.71907405    -0.20200
F1487       F  0.94014206  0.77578122  0.77940231    -0.20500
F1488       F  0.88183516  0.76400365  0.76271918    -0.23200
C1489       C  0.11302628  0.76766761  0.83837547    -0.06000
C1490       C  0.09962245  0.79728995  0.81741861    -0.00100
C1491       C  0.10464783  0.83384396  0.83064436    -0.08600
C1492       C  0.12843456  0.83938508  0.86056324    -0.06000
C1493       C  0.14548234  0.80979893  0.87830138    -0.00100
C1494       C  0.13519680  0.77345435  0.86944713    -0.08500
C1495       C  0.14791718  0.74123936  0.89262348     0.61800
H1496       H  0.10704537  0.73990385  0.82943061     0.12500
H1497       H  0.13629523  0.86703149  0.86850140     0.12500
C1498       C  0.08767071  0.86716521  0.81201004     0.62100
F1499       F  0.13174289  0.74363018  0.92741837    -0.23100
F1500       F  0.18579474  0.74203996  0.89620270    -0.20400
F1501       F  0.13828904  0.70778540  0.87715268    -0.20100
F1502       F  0.04957989  0.86336147  0.81099351    -0.20200
F1503       F  0.10183975  0.87054468  0.77656822    -0.20500
F1504       F  0.09525471  0.89951076  0.83069688    -0.23200
C1505       C  0.86917083  0.06225283  0.31615742    -0.06000
C1506       C  0.88283015  0.04111195  0.28639332    -0.00100
C1507       C  0.91323989  0.05501499  0.26519684    -0.08600
C1508       C  0.92610273  0.09116784  0.27249249    -0.06000
C1509       C  0.90825308  0.11401538  0.29867164    -0.00100
C1510       C  0.88096829  0.09847528  0.32240927    -0.08500
C1511       C  0.86185144  0.12084706  0.35243714     0.61800
H1512       H  0.84673008  0.05119014  0.33302331     0.12500
H1513       H  0.94800576  0.10297751  0.25553729     0.12500
C1514       C  0.93042108  0.03305099  0.23365844     0.62100
F1515       F  0.84444204  0.09846471  0.37836691    -0.23100
F1516       F  0.83536241  0.14302599  0.33662323    -0.20400
F1517       F  0.88732079  0.14237278  0.37073071    -0.20100
F1518       F  0.90392823  0.02549888  0.20747707    -0.20200
F1519       F  0.94460684  0.00037351  0.24713136    -0.20500
F1520       F  0.95905924  0.05200569  0.21629810    -0.23200
C1521       C  0.82833665  0.85108007  0.14144840    -0.06000
C1522       C  0.79793900  0.86193719  0.16335742    -0.00100
C1523       C  0.76250928  0.84696841  0.15624155    -0.08600
C1524       C  0.75919136  0.81940656  0.12903540    -0.06000
C1525       C  0.79032512  0.80594215  0.10974549    -0.00100
C1526       C  0.82526591  0.82275516  0.11510907    -0.08500
C1527       C  0.85958345  0.80920253  0.09469988     0.61800
H1528       H  0.85518442  0.86290703  0.14722762     0.12500
H1529       H  0.73282155  0.80583294  0.12507151     0.12500
C1530       C  0.72885069  0.85837024  0.17889073     0.62100
F1531       F  0.88981339  0.83179714  0.10052958    -0.23100
F1532       F  0.85299747  0.80828441  0.05714379    -0.20400
F1533       F  0.86843036  0.77429220  0.10686748    -0.20100
F1534       F  0.72632119  0.89637456  0.17997503    -0.20200
F1535       F  0.73206517  0.84480649  0.21440256    -0.20500
F1536       F  0.69640074  0.84484946  0.16412636    -0.23200
C1537       C  0.94847317  0.87409026  0.25169096    -0.06000
C1538       C  0.91416470  0.85872627  0.26190219    -0.00100
C1539       C  0.91132550  0.81987712  0.26676193    -0.08600
C1540       C  0.94286438  0.79792224  0.25991108    -0.06000
C1541       C  0.97609993  0.81315719  0.24670891    -0.00100
C1542       C  0.97952616  0.85190756  0.24365125    -0.08500
C1543       C  0.01557797  0.86975201  0.23115939     0.61800
H1544       H  0.95025341  0.90367595  0.24818305     0.12500
H1545       H  0.94095247  0.76821093  0.26176530     0.12500
C1546       C  0.87469682  0.80103196  0.27582700     0.62100
F1547       F  0.02185960  0.86301256  0.19399643    -0.23100
F1548       F  0.04454450  0.85560174  0.25133508    -0.20400
F1549       F  0.01492122  0.90752610  0.23630994    -0.20100
F1550       F  0.84880726  0.81016893  0.24958475    -0.20200
F1551       F  0.86200790  0.81181259  0.31031998    -0.20500
F1552       F  0.87797928  0.76303087  0.27618918    -0.23200
C1553       C  0.76826918  0.01581119  0.15108801    -0.06000
C1554       C  0.75856888  0.02171115  0.18838759    -0.00100
C1555       C  0.73476349  0.05150872  0.19764946    -0.08600
C1556       C  0.72421791  0.07614055  0.16945525    -0.06000
C1557       C  0.73690391  0.07218961  0.13263313    -0.00100
C1558       C  0.75757300  0.04023217  0.12290081    -0.08500
C1559       C  0.76883924  0.03175845  0.08316204     0.61800
H1560       H  0.78574419  0.99242799  0.14428001     0.12500
H1561       H  0.70790492  0.10020418  0.17658702     0.12500
C1562       C  0.72241042  0.05873841  0.23731840     0.62100
F1563       F  0.78017362  0.99551757  0.07911714    -0.23100
F1564       F  0.79794854  0.05413577  0.07216873    -0.20400
F1565       F  0.73906895  0.03730761  0.06012742    -0.20100
F1566       F  0.75306314  0.06308787  0.25941796    -0.20200
F1567       F  0.70136121  0.02949471  0.25021021    -0.20500
F1568       F  0.70101134  0.09028226  0.24039711    -0.23200
C1569       C  0.67233210  0.88546258  0.27020348    -0.06000
C1570       C  0.69151162  0.90095475  0.29974351    -0.00100
C1571       C  0.67692149  0.89714014  0.33627293    -0.08600
C1572       C  0.64621524  0.87396363  0.34211554    -0.06000
C1573       C  0.63073140  0.85443022  0.31291040    -0.00100
C1574       C  0.64205267  0.86211205  0.27614589    -0.08500
C1575       C  0.62524712  0.84407005  0.24263445     0.61800
H1576       H  0.68267959  0.88963357  0.24223568     0.12500
H1577       H  0.63674051  0.86764588  0.36998305     0.12500
C1578       C  0.69605542  0.91337315  0.36941803     0.62100
F1579       F  0.61765904  0.87062087  0.21632274    -0.23100
F1580       F  0.59251910  0.82601384  0.25103254    -0.20400
F1581       F  0.65030478  0.81911661  0.22778381    -0.20100
F1582       F  0.69926696  0.95110340  0.36539568    -0.20200
F1583       F  0.73066258  0.89760321  0.37227212    -0.20500
F1584       F  0.67672366  0.90662356  0.40208877    -0.23200
C1585       C  0.90721567  0.83657875  0.61516981    -0.06000
C1586       C  0.89386652  0.81146323  0.58922960    -0.00100
C1587       C  0.91710513  0.78219740  0.57727017    -0.08600
C1588       C  0.95152002  0.77684395  0.59475783    -0.06000
C1589       C  0.96317202  0.79989276  0.62359468    -0.00100
C1590       C  0.94175917  0.83188559  0.63208253    -0.08500
C1591       C  0.95459546  0.86110111  0.65912829     0.61800
H1592       H  0.88926856  0.85905205  0.62370193     0.12500
H1593       H  0.96828536  0.75303536  0.58781462     0.12500
C1594       C  0.90457180  0.75551922  0.54783585     0.62100
F1595       F  0.93453878  0.89341932  0.65555597    -0.23100
F1596       F  0.99145416  0.86938456  0.65233200    -0.20400
F1597       F  0.95005021  0.84887227  0.69512218    -0.20100
F1598       F  0.89690054  0.77461602  0.51574602    -0.20200
F1599       F  0.87304464  0.73737609  0.55989629    -0.20500
F1600       F  0.93143104  0.72941142  0.53963504    -0.23200
C1601       C  0.82504422  0.88227641  0.44359979    -0.06000
C1602       C  0.79367580  0.89406325  0.46390586    -0.00100
C1603       C  0.77248669  0.92402429  0.44988821    -0.08600
C1604       C  0.78211730  0.93893647  0.41496092    -0.06000
C1605       C  0.81076673  0.92392057  0.39320080    -0.00100
C1606       C  0.83433315  0.89725081  0.40885509    -0.08500
C1607       C  0.86839059  0.88269753  0.38882537     0.61800
H1608       H  0.84196586  0.86020449  0.45446741     0.12500
H1609       H  0.76489500  0.95992981  0.40266146     0.12500
C1610       C  0.73841805  0.93874796  0.47003880     0.62100
F1611       F  0.89708170  0.87835950  0.41344209    -0.23100
F1612       F  0.88043442  0.90648289  0.36125926    -0.20400
F1613       F  0.86029847  0.84891681  0.37351600    -0.20100
F1614       F  0.74887416  0.95413692  0.50308765    -0.20200
F1615       F  0.71337819  0.91058762  0.47660863    -0.20500
F1616       F  0.72054215  0.96577913  0.44997868    -0.23200
C1617       C  0.63768107  0.80097677  0.64053265    -0.06000
C1618       C  0.66608429  0.82531201  0.65066656    -0.00100
C1619       C  0.66562015  0.84030318  0.68701930    -0.08600
C1620       C  0.64009956  0.82638816  0.71290448    -0.06000
C1621       C  0.61393564  0.79979877  0.70347388    -0.00100
C1622       C  0.61100632  0.78831437  0.66643572    -0.08500
C1623       C  0.58009478  0.76294197  0.65474221     0.61800
H1624       H  0.63730329  0.79073499  0.61249275     0.12500
H1625       H  0.64101824  0.83575905  0.74131157     0.12500
C1626       C  0.69143154  0.87102507  0.69901978     0.62100
F1627       F  0.58196912  0.75525316  0.61726766    -0.23100
F1628       F  0.54634063  0.77953098  0.66236744    -0.20400
F1629       F  0.58209770  0.73011157  0.67391552    -0.20100
F1630       F  0.69359563  0.89778366  0.67183940    -0.20200
F1631       F  0.72633885  0.85706451  0.70575646    -0.20500
F1632       F  0.67872291  0.88789594  0.73114341    -0.23200
C1633       C  0.77604356  0.92886367  0.67821623    -0.06000
C1634       C  0.77006125  0.93361958  0.64020949    -0.00100
C1635       C  0.75471956  0.96721885  0.62758060    -0.08600
C1636       C  0.74028804  0.99223860  0.65355890    -0.06000
C1637       C  0.74213276  0.98529823  0.69152299    -0.00100
C1638       C  0.76206238  0.95429147  0.70436329    -0.08500
C1639       C  0.76602711  0.94673220  0.74538700     0.61800
H1640       H  0.78836721  0.90334633  0.68751670     0.12500
H1641       H  0.72575348  0.01661429  0.64425211     0.12500
C1642       C  0.75162909  0.97593402  0.58683284     0.62100
F1643       F  0.78503819  0.91429497  0.75192342    -0.23100
F1644       F  0.73137607  0.94388563  0.76193182    -0.20400
F1645       F  0.78532860  0.97518214  0.76161813    -0.20100
F1646       F  0.72078392  0.95873238  0.57268066    -0.20200
F1647       F  0.78319001  0.96408448  0.56817032    -0.20500
F1648       F  0.74815113  0.01345735  0.58095597    -0.23200
C1649       C  0.80461205  0.68466464  0.60429767    -0.06000
C1650       C  0.77421037  0.70787766  0.61167730    -0.00100
C1651       C  0.74631741  0.69605219  0.63698513    -0.08600
C1652       C  0.75419430  0.66642614  0.66034358    -0.06000
C1653       C  0.78722122  0.64641286  0.65650784    -0.00100
C1654       C  0.81141480  0.65349089  0.62627705    -0.08500
C1655       C  0.84512784  0.62957628  0.61867014     0.61800
H1656       H  0.82463375  0.69266005  0.58328655     0.12500
H1657       H  0.73495699  0.65963804  0.68266917     0.12500
C1658       C  0.70855449  0.71417184  0.64082126     0.62100
F1659       F  0.86534273  0.64181507  0.58823403    -0.23100
F1660       F  0.83373823  0.59397408  0.61165604    -0.20400
F1661       F  0.86816360  0.62959327  0.64888693    -0.20100
F1662       F  0.70049940  0.73620667  0.61076253    -0.20200
F1663       F  0.70714403  0.73511504  0.67272613    -0.20500
F1664       F  0.68143043  0.68729551  0.64308134    -0.23200
C1665       C  0.62792799  0.76646383  0.45796140    -0.06000
C1666       C  0.64261381  0.75258791  0.42462268    -0.00100
C1667       C  0.68174628  0.74809922  0.42083061    -0.08600
C1668       C  0.70454829  0.76026635  0.44967429    -0.06000
C1669       C  0.68978002  0.77687708  0.48156054    -0.00100
C1670       C  0.65083686  0.77844569  0.48664124    -0.08500
C1671       C  0.63360054  0.79134829  0.52274932     0.61800
H1672       H  0.59813092  0.76912053  0.46087908     0.12500
H1673       H  0.73441514  0.75870327  0.44674233     0.12500
C1674       C  0.69990670  0.73252654  0.38600758     0.62100
F1675       F  0.59572643  0.78529093  0.52416117    -0.23100
F1676       F  0.63967520  0.82859935  0.52750066    -0.20400
F1677       F  0.64940077  0.77190003  0.55129683    -0.20100
F1678       F  0.69097652  0.75394905  0.35580613    -0.20200
F1679       F  0.68799365  0.69680485  0.38051319    -0.20500
F1680       F  0.73817189  0.73175447  0.38828698    -0.23200
loop_ 
_geom_bond_atom_site_label_1 
_geom_bond_atom_site_label_2 
_geom_bond_distance 
_geom_bond_site_symmetry_2 
_ccdc_geom_bond_type 
O1          Cr19   1.986       .  S
O1            C9   1.257       .  A
O2          Cr19   1.967       .  S
O2            C3   1.260       .  A
C3            O4   1.267       .  A
C3         C1650   1.479       .  S
O4          Cr20   2.007       .  S
O5          Cr20   1.987       .  S
O5            C6   1.259       .  A
C6            O7   1.261       .  A
C6         C1669   1.484       .  S
O7          Cr21   1.998       .  S
O8          Cr21   2.003       .  S
O8            C9   1.263       .  A
C9         C1618   1.486       .  S
O10         Cr19   1.986       .  S
O10          C18   1.264       .  A
O11         Cr19   1.993       .  S
O11          C12   1.261       .  A
C12          O13   1.263       .  A
C12        C1586   1.486       .  S
O13         Cr20   2.002       .  S
O14         Cr20   2.010       .  S
O14          C15   1.270       .  A
C15          O16   1.263       .  A
C15        C1602   1.497       .  S
O16         Cr21   1.987       .  S
O17         Cr21   1.999       .  S
O17          C18   1.265       .  A
C18        C1634   1.482       .  S
Cr19         O22   1.775       .  S
Cr20         O22   1.782       .  S
Cr21         O22   1.777       .  S
O23         Cr41   1.968       .  S
O23          C31   1.255       .  A
O24         Cr41   2.003       .  S
O24          C25   1.264       .  A
C25          O26   1.261       .  A
C25        C1522   1.482       .  S
O26         Cr42   1.992       .  S
O27         Cr42   2.008       .  S
O27          C28   1.268       .  A
C28          O29   1.264       .  A
C28        C1554   1.490   1_565  S
O29         Cr43   1.991       .  S
O30         Cr43   2.008       .  S
O30          C31   1.258       .  A
C31        C1570   1.478       .  S
O32         Cr41   2.007       .  S
O32          C40   1.269       .  A
O33         Cr41   1.970       .  S
O33          C34   1.256       .  A
C34          O35   1.267       .  A
C34        C1538   1.486       .  S
O35         Cr42   2.013       .  S
O36         Cr42   2.005       .  S
O36          C37   1.264   1_565  A
C37          O38   1.265       .  A
C37        C1506   1.497       .  S
O38         Cr43   1.995   1_545  S
O39         Cr43   1.990       .  S
O39          C40   1.265       .  A
C40        C1605   1.482       .  S
Cr41         O44   1.771       .  S
Cr42         O44   1.781       .  S
Cr43         O44   1.783       .  S
O45         Cr63   1.977       .  S
O45          C53   1.257       .  A
O46         Cr63   1.981       .  S
O46          C47   1.259       .  A
C47          O48   1.263       .  A
C47        C1426   1.476       .  S
O48         Cr64   2.002       .  S
O49         Cr64   2.000       .  S
O49          C50   1.267   1_455  A
C50          O51   1.267   1_655  A
C50        C1474   1.479       .  S
O51         Cr65   1.994       .  S
O52         Cr65   2.010       .  S
O52          C53   1.260       .  A
C53        C1490   1.484       .  S
O54         Cr63   1.997       .  S
O54          C62   1.264       .  A
O55         Cr63   1.976       .  S
O55          C56   1.258       .  A
C56          O57   1.266       .  A
C56        C1442   1.489       .  S
O57         Cr64   2.010       .  S
O58         Cr64   2.010       .  S
O58          C59   1.266   1_455  A
C59          O60   1.258       .  A
C59        C1589   1.497       .  S
O60         Cr65   1.989   1_655  S
O61         Cr65   1.991       .  S
O61          C62   1.265       .  A
C62        C1458   1.488       .  S
Cr63         O66   1.774       .  S
Cr64         O66   1.782       .  S
Cr65         O66   1.784       .  S
O67         Cr85   1.996       .  S
O67          C75   1.263       .  A
O68         Cr85   1.976       .  S
O68          C69   1.262       .  A
C69          O70   1.265       .  A
C69        C1330   1.489       .  S
O70         Cr86   2.012       .  S
O71         Cr86   1.981       .  S
O71          C72   1.261       .  A
C72          O73   1.260       .  A
C72        C1365   1.497       .  S
O73         Cr87   1.998       .  S
O74         Cr87   1.994       .  S
O74          C75   1.260       .  A
C75        C1410   1.474       .  S
O76         Cr85   1.979       .  S
O76          C84   1.262       .  A
O77         Cr85   2.008       .  S
O77          C78   1.266       .  A
C78          O79   1.263       .  A
C78        C1346   1.502       .  S
O79         Cr86   1.995       .  S
O80         Cr86   2.013       .  S
O80          C81   1.266       .  A
C81          O82   1.263       .  A
C81        C1394   1.502       .  S
O82         Cr87   1.984       .  S
O83         Cr87   2.007       .  S
O83          C84   1.268       .  A
C84        C1381   1.494       .  S
Cr85         O88   1.767       .  S
Cr86         O88   1.770       .  S
Cr87         O88   1.776       .  S
O89        Cr107   1.980       .  S
O89          C97   1.263       .  A
O90        Cr107   1.996       .  S
O90          C91   1.261       .  A
C91          O92   1.262       .  A
C91        C1266   1.483       .  S
O92        Cr108   2.004       .  S
O93        Cr108   2.013       .  S
O93          C94   1.265       .  A
C94          O95   1.262       .  A
C94        C1314   1.499   1_545  S
O95        Cr109   1.976       .  S
O96        Cr109   2.010       .  S
O96          C97   1.265       .  A
C97        C1285   1.478       .  S
O98        Cr107   1.994       .  S
O98         C106   1.264       .  A
O99        Cr107   1.978       .  S
O99         C100   1.261       .  A
C100        O101   1.271       .  A
C100       C1397   1.500       .  S
O101       Cr108   2.012       .  S
O102       Cr108   1.982       .  S
O102        C103   1.262   1_545  A
C103        O104   1.264   1_565  A
C103       C1461   1.486       .  S
O104       Cr109   2.005       .  S
O105       Cr109   1.997       .  S
O105        C106   1.262       .  A
C106       C1298   1.493       .  S
Cr107       O110   1.767       .  S
Cr108       O110   1.777       .  S
Cr109       O110   1.778       .  S
O111       Cr129   1.998       .  S
O111        C119   1.265       .  A
O112       Cr129   1.975       .  S
O112        C113   1.255       .  A
C113        O114   1.259       .  A
C113       C1253   1.480       .  S
O114       Cr130   2.003       .  S
O115       Cr130   2.009       .  S
O115        C116   1.268       .  A
C116        O117   1.263       .  A
C116       C1234   1.493   1_655  S
O117       Cr131   2.001       .  S
O118       Cr131   1.984       .  S
O118        C119   1.262       .  A
C119       C1202   1.479       .  S
O120       Cr129   1.985       .  S
O120        C128   1.257       .  A
O121       Cr129   2.000       .  S
O121        C122   1.268       .  A
C122        O123   1.265       .  A
C122       C1509   1.492       .  S
O123       Cr130   1.997       .  S
O124       Cr130   1.993       .  S
O124        C125   1.264       .  A
C125        O126   1.264       .  A
C125       C1378   1.480   1_655  S
O126       Cr131   1.990       .  S
O127       Cr131   2.006       .  S
O127        C128   1.263       .  A
C128       C1218   1.492       .  S
Cr129       O132   1.776       .  S
Cr130       O132   1.791       .  S
Cr131       O132   1.783       .  S
O133       Cr151   1.976       .  S
O133        C141   1.255       .  A
O134       Cr151   1.991       .  S
O134        C135   1.263       .  A
C135        O136   1.264       .  A
C135       C1170   1.477       .  S
O136       Cr152   1.994       .  S
O137       Cr152   2.014       .  S
O137        C138   1.268       .  A
C138        O139   1.265       .  A
C138       C1221   1.484       .  S
O139       Cr153   1.991       .  S
O140       Cr153   2.006       .  S
O140        C141   1.259       .  A
C141       C1154   1.484       .  S
O142       Cr151   2.011       .  S
O142        C150   1.270       .  A
O143       Cr151   1.976       .  S
O143        C144   1.256       .  A
C144        O145   1.265       .  A
C144       C1186   1.497       .  S
O145       Cr152   2.015       .  S
O146       Cr152   2.014       .  S
O146        C147   1.269       .  A
C147        O148   1.260       .  A
C147       C1122   1.502       .  S
O148       Cr153   1.994       .  S
O149       Cr153   1.977       .  S
O149        C150   1.261       .  A
C150       C1138   1.482       .  S
Cr151       O154   1.776       .  S
Cr152       O154   1.782       .  S
Cr153       O154   1.782       .  S
O155       Cr173   1.964       .  S
O155        C163   1.258       .  A
O156       Cr173   1.994       .  S
O156        C157   1.259       .  A
C157        O158   1.259       .  A
C157       C1205   1.466       .  S
O158       Cr174   1.992       .  S
O159       Cr174   2.021       .  S
O159        C160   1.267       .  A
C160        O161   1.261       .  A
C160       C1109   1.501       .  S
O161       Cr175   1.986       .  S
O162       Cr175   2.034       .  S
O162        C163   1.272       .  A
C163       C1077   1.488       .  S
O164       Cr173   1.997       .  S
O164        C172   1.259       .  A
O165       Cr173   1.972       .  S
O165        C166   1.263       .  A
C166        O167   1.272       .  A
C166       C1125   1.503       .  S
O167       Cr174   2.041       .  S
O168       Cr174   1.973       .  S
O168        C169   1.263       .  A
C169        O170   1.272       .  A
C169       C1058   1.500       .  S
O170       Cr175   2.022       .  S
O171       Cr175   2.003       .  S
O171        C172   1.264       .  A
C172       C1090   1.498       .  S
Cr173       O176   1.760       .  S
Cr174       O176   1.779       .  S
Cr175       O176   1.774       .  S
O177       Cr195   1.996       .  S
O177        C185   1.259       .  A
O178       Cr195   1.984       .  S
O178        C179   1.265       .  A
C179        O180   1.269       .  A
C179       C1026   1.486       .  S
O180       Cr196   2.018       .  S
O181       Cr196   1.969       .  S
O181        C182   1.257       .  A
C182        O183   1.266       .  A
C182       C1010   1.493       .  S
O183       Cr197   2.011       .  S
O184       Cr197   2.008       .  S
O184        C185   1.262       .  A
C185       C1429   1.486       .  S
O186       Cr195   1.979       .  S
O186        C194   1.266       .  A
O187       Cr195   1.990       .  S
O187        C188   1.260       .  A
C188        O189   1.261       .  A
C188       C1045   1.486       .  S
O189       Cr196   1.992       .  S
O190       Cr196   2.023       .  S
O190        C191   1.268       .  A
C191        O192   1.264       .  A
C191        C978   1.511       .  S
O192       Cr197   1.986       .  S
O193       Cr197   2.026       .  S
O193        C194   1.271       .  A
C194        C997   1.498       .  S
Cr195       O198   1.765       .  S
Cr196       O198   1.776       .  S
Cr197       O198   1.774       .  S
O199       Cr217   2.000       .  S
O199        C207   1.262       .  A
O200       Cr217   1.973       .  S
O200        C201   1.257       .  A
C201        O202   1.263       .  A
C201        C965   1.470       .  S
O202       Cr218   2.001       .  S
O203       Cr218   1.999       .  S
O203        C204   1.264       .  A
C204        O205   1.263       .  A
C204        C949   1.489       .  S
O205       Cr219   1.998       .  S
O206       Cr219   2.006       .  S
O206        C207   1.264       .  A
C207       C1269   1.482       .  S
O208       Cr217   1.975       .  S
O208        C216   1.259       .  A
O209       Cr217   2.001       .  S
O209        C210   1.263       .  A
C210        O211   1.267       .  A
C210        C981   1.489       .  S
O211       Cr218   2.001       .  S
O212       Cr218   2.001       .  S
O212        C213   1.268       .  A
C213        O214   1.266       .  A
C213       C1141   1.499       .  S
O214       Cr219   1.999       .  S
O215       Cr219   2.009       .  S
O215        C216   1.265       .  A
C216       C1362   1.484       .  S
Cr217       O220   1.772       .  S
Cr218       O220   1.778       .  S
Cr219       O220   1.777       .  S
O221       Cr239   1.970       .  S
O221        C229   1.253       .  A
O222       Cr239   1.993       .  S
O222        C223   1.263       .  A
C223        O224   1.256       .  A
C223       C1573   1.463       .  S
O224       Cr240   1.971       .  S
O225       Cr240   2.004       .  S
O225        C226   1.265       .  A
C226        O227   1.264       .  A
C226        C933   1.483       .  S
O227       Cr241   1.989       .  S
O228       Cr241   2.003       .  S
O228        C229   1.258       .  A
C229        C914   1.464       .  S
O230       Cr239   2.003       .  S
O230        C238   1.267       .  A
O231       Cr239   1.973       .  S
O231        C232   1.256       .  A
C232        O233   1.266       .  A
C232       C1666   1.489       .  S
O233       Cr240   2.008       .  S
O234       Cr240   1.995       .  S
O234        C235   1.266       .  A
C235        O236   1.264       .  A
C235        C898   1.489       .  S
O236       Cr241   2.002       .  S
O237       Cr241   1.984       .  S
O237        C238   1.264       .  A
C238       C1061   1.471       .  S
Cr239       O242   1.769       .  S
Cr240       O242   1.776       .  S
Cr241       O242   1.775       .  S
O243       Cr261   1.999       .  S
O243        C251   1.266       .  A
O244       Cr261   1.985       .  S
O244        C245   1.258       .  A
C245        O246   1.260       .  A
C245        C882   1.478       .  S
O246       Cr262   2.003       .  S
O247       Cr262   1.999       .  S
O247        C248   1.263       .  A
C248        O249   1.259       .  A
C248       C1445   1.479       .  S
O249       Cr263   1.994       .  S
O250       Cr263   1.982       .  S
O250        C251   1.263       .  A
C251        C850   1.467       .  S
O252       Cr261   2.003       .  S
O252        C260   1.263       .  A
O253       Cr261   2.005       .  S
O253        C254   1.268       .  A
C254        O255   1.262       .  A
C254        C901   1.487       .  S
O255       Cr262   1.985       .  S
O256       Cr262   2.005       .  S
O256        C257   1.267       .  A
C257        O258   1.268       .  A
C257        C994   1.494       .  S
O258       Cr263   1.998       .  S
O259       Cr263   1.985       .  S
O259        C260   1.255       .  A
C260        C866   1.502       .  S
Cr261       O264   1.781       .  S
Cr262       O264   1.783       .  S
Cr263       O264   1.782       .  S
O265       Cr283   1.983       .  S
O265        C273   1.260       .  A
O266       Cr283   1.972       .  S
O266        C267   1.259       .  A
C267        O268   1.264       .  A
C267        C834   1.485       .  S
O268       Cr284   2.017       .  S
O269       Cr284   2.003       .  S
O269        C270   1.268       .  A
C270        O271   1.264       .  A
C270       C1189   1.490       .  S
O271       Cr285   2.001       .  S
O272       Cr285   1.980       .  S
O272        C273   1.257       .  A
C273       C1653   1.466       .  S
O274       Cr283   1.976       .  S
O274        C282   1.259       .  A
O275       Cr283   1.982       .  S
O275        C276   1.263       .  A
C276        O277   1.263       .  A
C276        C802   1.482       .  S
O277       Cr284   2.000       .  S
O278       Cr284   1.991       .  S
O278        C279   1.263       .  A
C279        O280   1.260       .  A
C279        C818   1.471       .  S
O280       Cr285   1.979       .  S
O281       Cr285   2.013       .  S
O281        C282   1.266       .  A
C282       C1477   1.483       .  S
Cr283       O286   1.768       .  S
Cr284       O286   1.780       .  S
Cr285       O286   1.775       .  S
O287       Cr305   2.005       .  S
O287        C295   1.264       .  A
O288       Cr305   1.961       .  S
O288        C289   1.259       .  A
C289        O290   1.267       .  A
C289        C770   1.463       .  S
O290       Cr306   2.010       .  S
O291       Cr306   1.984       .  S
O291        C292   1.259       .  A
C292        O293   1.264       .  A
C292       C1301   1.499   1_655  S
O293       Cr307   2.009       .  S
O294       Cr307   1.991       .  S
O294        C295   1.261       .  A
C295       C1173   1.476       .  S
O296       Cr305   1.969       .  S
O296        C304   1.258       .  A
O297       Cr305   2.001       .  S
O297        C298   1.260       .  A
C298        O299   1.262       .  A
C298        C786   1.487       .  S
O299       Cr306   1.990       .  S
O300       Cr306   2.022       .  S
O300        C301   1.270       .  A
C301        O302   1.262       .  A
C301        C754   1.497   1_655  S
O302       Cr307   1.973       .  S
O303       Cr307   2.010       .  S
O303        C304   1.269       .  A
C304        C821   1.486       .  S
Cr305       O308   1.769       .  S
Cr306       O308   1.773       .  S
Cr307       O308   1.772       .  S
O309       Cr327   2.001       .  S
O309        C317   1.262       .  A
O310       Cr327   1.965       .  S
O310        C311   1.260       .  A
C311        O312   1.269       .  A
C311        C917   1.466       .  S
O312       Cr328   2.017       .  S
O313       Cr328   1.978       .  S
O313        C314   1.255       .  A
C314        O315   1.269   1_554  A
C314        C741   1.510   1_554  S
O315       Cr329   2.024   1_556  S
O316       Cr329   2.004       .  S
O316        C317   1.265       .  A
C317       C1525   1.479       .  S
O318       Cr327   1.972       .  S
O318        C326   1.262       .  A
O319       Cr327   1.994       .  S
O319        C320   1.260       .  A
C320        O321   1.260       .  A
C320       C1106   1.498       .  S
O321       Cr328   1.997       .  S
O322       Cr328   2.018       .  S
O322        C323   1.271   1_554  A
C323        O324   1.260   1_556  A
C323        C805   1.488       .  S
O324       Cr329   1.971       .  S
O325       Cr329   2.031       .  S
O325        C326   1.268       .  A
C326        C722   1.496       .  S
Cr327       O330   1.763       .  S
Cr328       O330   1.778       .  S
Cr329       O330   1.778       .  S
O331       Cr349   1.982       .  S
O331        C339   1.258       .  A
O332       Cr349   1.997       .  S
O332        C333   1.263       .  A
C333        O334   1.261       .  A
C333       C1413   1.477       .  S
O334       Cr350   1.996       .  S
O335       Cr350   2.016       .  S
O335        C336   1.271       .  A
C336        O337   1.262       .  A
C336        C869   1.494       .  S
O337       Cr351   1.989       .  S
O338       Cr351   1.987       .  S
O338        C339   1.258       .  A
C339        C706   1.462       .  S
O340       Cr349   1.999       .  S
O340        C348   1.265       .  A
O341       Cr349   1.981       .  S
O341        C342   1.258       .  A
C342        O343   1.270       .  A
C342       C1237   1.503       .  S
O343       Cr350   2.024       .  S
O344       Cr350   1.998       .  S
O344        C345   1.264       .  A
C345        O346   1.261       .  A
C345        C690   1.491       .  S
O346       Cr351   1.991       .  S
O347       Cr351   1.995       .  S
O347        C348   1.265       .  A
C348        C674   1.483       .  S
Cr349       O352   1.770       .  S
Cr350       O352   1.776       .  S
Cr351       O352   1.780       .  S
O353       Cr371   1.996       .  S
O353        C361   1.263       .  A
O354       Cr371   1.980       .  S
O354        C355   1.259       .  A
C355        O356   1.257       .  A
C355        C853   1.486       .  S
O356       Cr372   2.005       .  S
O357       Cr372   1.995       .  S
O357        C358   1.267       .  A
C358        O359   1.264       .  A
C358       C1541   1.477   1_455  S
O359       Cr373   1.995       .  S
O360       Cr373   2.000       .  S
O360        C361   1.265       .  A
C361        C642   1.482       .  S
O362       Cr371   1.986       .  S
O362        C370   1.261       .  A
O363       Cr371   1.997       .  S
O363        C364   1.268       .  A
C364        O365   1.265       .  A
C364        C693   1.485       .  S
O365       Cr372   1.995       .  S
O366       Cr372   1.981   1_655  S
O366        C367   1.255       .  A
C367        O368   1.268   1_655  A
C367        C725   1.504       .  S
O368       Cr373   2.016       .  S
O369       Cr373   1.993       .  S
O369        C370   1.260       .  A
C370        C658   1.485       .  S
Cr371       O374   1.771       .  S
Cr372       O374   1.782       .  S
Cr373       O374   1.781       .  S
O375       Cr393   1.970       .  S
O375        C383   1.259       .  A
O376       Cr393   1.986       .  S
O376        C377   1.261       .  A
C377        O378   1.262       .  A
C377       C1282   1.468       .  S
O378       Cr394   1.991       .  S
O379       Cr394   2.017       .  S
O379        C380   1.266       .  A
C380        O381   1.261       .  A
C380        C626   1.503   1_556  S
O381       Cr395   1.978       .  S
O382       Cr395   2.022       .  S
O382        C383   1.267       .  A
C383        C962   1.477       .  S
O384       Cr393   1.985       .  S
O384        C392   1.262       .  A
O385       Cr393   1.972       .  S
O385        C386   1.257       .  A
C386        O387   1.270       .  A
C386        C757   1.501       .  S
O387       Cr394   2.022       .  S
O388       Cr394   1.979       .  S
O388        C389   1.260   1_556  A
C389        O390   1.270   1_554  A
C389        C677   1.498       .  S
O390       Cr395   2.020       .  S
O391       Cr395   1.988       .  S
O391        C392   1.261       .  A
C392       C1013   1.484       .  S
Cr393       O396   1.761       .  S
Cr394       O396   1.771       .  S
Cr395       O396   1.773       .  S
O397       Cr415   1.994       .  S
O397        C405   1.264       .  A
O398       Cr415   1.968       .  S
O398        C399   1.252       .  A
C399        O400   1.258       .  A
C399       C1621   1.468       .  S
O400       Cr416   2.005       .  S
O401       Cr416   1.987       .  S
O401        C402   1.261       .  A
C402        O403   1.265       .  A
C402       C1042   1.485       .  S
O403       Cr417   2.000       .  S
O404       Cr417   1.981       .  S
O404        C405   1.259       .  A
C405        C837   1.465       .  S
O406       Cr415   1.976       .  S
O406        C414   1.256       .  A
O407       Cr415   1.996       .  S
O407        C408   1.267       .  A
C408        O409   1.264       .  A
C408        C597   1.475       .  S
O409       Cr416   1.982       .  S
O410       Cr416   2.010       .  S
O410        C411   1.270       .  A
C411        O412   1.267       .  A
C411        C610   1.499       .  S
O412       Cr417   1.995       .  S
O413       Cr417   2.022       .  S
O413        C414   1.267       .  A
C414        C738   1.497       .  S
Cr415       O418   1.766       .  S
Cr416       O418   1.778       .  S
Cr417       O418   1.776       .  S
O419       Cr437   1.980       .  S
O419        C427   1.260       .  A
O420       Cr437   2.008       .  S
O420        C421   1.268       .  A
C421        O422   1.260       .  A
C421       C1493   1.470       .  S
O422       Cr438   1.982       .  S
O423       Cr438   1.997   1_554  S
O423        C424   1.262       .  A
C424        O425   1.262   1_554  A
C424        C661   1.478       .  S
O425       Cr439   1.994       .  S
O426       Cr439   2.029       .  S
O426        C427   1.267       .  A
C427       C1029   1.496       .  S
O428       Cr437   2.006       .  S
O428        C436   1.267       .  A
O429       Cr437   1.989       .  S
O429        C430   1.261       .  A
C430        O431   1.260       .  A
C430       C1317   1.500       .  S
O431       Cr438   2.000       .  S
O432       Cr438   1.986       .  S
O432        C433   1.262   1_556  A
C433        O434   1.273       .  A
C433        C578   1.496       .  S
O434       Cr439   2.018   1_554  S
O435       Cr439   1.984       .  S
O435        C436   1.261       .  A
C436        C613   1.488       .  S
Cr437       O440   1.768       .  S
Cr438       O440   1.778       .  S
Cr439       O440   1.777       .  S
O441       Cr459   1.949       .  S
O441        C449   1.251       .  A
O442       Cr459   2.000       .  S
O442        C443   1.265       .  A
C443        O444   1.260       .  A
C443       C1157   1.466       .  S
O444       Cr460   1.981       .  S
O445       Cr460   2.012       .  S
O445        C446   1.267       .  A
C446        O447   1.256       .  A
C446       C1637   1.474   1_545  S
O447       Cr461   1.973       .  S
O448       Cr461   2.016       .  S
O448        C449   1.264       .  A
C449        C773   1.463       .  S
O450       Cr459   2.009       .  S
O450        C458   1.268       .  A
O451       Cr459   1.973       .  S
O451        C452   1.259       .  A
C452        O453   1.269       .  A
C452        C946   1.494       .  S
O453       Cr460   2.029       .  S
O454       Cr460   1.979       .  S
O454        C455   1.265   1_545  A
C455        O456   1.269       .  A
C455        C594   1.488       .  S
O456       Cr461   2.012   1_565  S
O457       Cr461   1.972       .  S
O457        C458   1.258       .  A
C458        C565   1.480       .  S
Cr459       O462   1.760       .  S
Cr460       O462   1.769       .  S
Cr461       O462   1.775       .  S
O463       Cr481   1.968       .  S
O463        C471   1.256       .  A
O464       Cr481   1.990       .  S
O464        C465   1.261       .  A
C465        O466   1.258       .  A
C465        C709   1.464       .  S
O466       Cr482   1.978       .  S
O467       Cr482   2.008       .  S
O467        C468   1.262       .  A
C468        O469   1.265       .  A
C468       C1093   1.499       .  S
O469       Cr483   2.004       .  S
O470       Cr483   2.005       .  S
O470        C471   1.263       .  A
C471       C1333   1.472       .  S
O472       Cr481   1.998       .  S
O472        C480   1.264       .  A
O473       Cr481   1.977       .  S
O473        C474   1.259       .  A
C474        O475   1.265       .  A
C474        C629   1.484       .  S
O475       Cr482   2.011       .  S
O476       Cr482   1.979       .  S
O476        C477   1.262       .  A
C477        O478   1.269       .  A
C477        C546   1.481       .  S
O478       Cr483   2.004       .  S
O479       Cr483   1.996       .  S
O479        C480   1.265       .  A
C480        C533   1.482       .  S
Cr481       O484   1.770       .  S
Cr482       O484   1.776       .  S
Cr483       O484   1.776       .  S
O485       Cr503   1.996       .  S
O485        C493   1.266       .  A
O486       Cr503   1.957       .  S
O486        C487   1.254       .  A
C487        O488   1.265       .  A
C487       C1074   1.494       .  S
O488       Cr504   2.029       .  S
O489       Cr504   2.012       .  S
O489        C490   1.268   1_554  A
C490        O491   1.257       .  A
C490        C789   1.501       .  S
O491       Cr505   1.990   1_556  S
O492       Cr505   1.976       .  S
O492        C493   1.259       .  A
C493       C1250   1.460       .  S
O494       Cr503   1.981       .  S
O494        C502   1.258       .  A
O495       Cr503   1.997       .  S
O495        C496   1.265       .  A
C496        O497   1.262       .  A
C496        C549   1.475       .  S
O497       Cr504   1.978       .  S
O498       Cr504   2.014   1_556  S
O498        C499   1.271       .  A
C499        O500   1.268   1_556  A
C499        C562   1.486       .  S
O500       Cr505   1.981       .  S
O501       Cr505   2.012       .  S
O501        C502   1.262       .  A
C502       C1557   1.495       .  S
Cr503       O506   1.762       .  S
Cr504       O506   1.773       .  S
Cr505       O506   1.768       .  S
O507       Cr525   2.001       .  S
O507        C515   1.264       .  A
O508       Cr525   1.975       .  S
O508        C509   1.261       .  A
C509        O510   1.265       .  A
C509        C645   1.489       .  S
O510       Cr526   2.018       .  S
O511       Cr526   1.999       .  S
O511        C512   1.262   1_565  A
C512        O513   1.262   1_545  A
C512       C1349   1.494       .  S
O513       Cr527   1.993       .  S
O514       Cr527   1.998       .  S
O514        C515   1.265       .  A
C515        C885   1.482       .  S
O516       Cr525   1.986       .  S
O516        C524   1.258       .  A
O517       Cr525   1.994       .  S
O517        C518   1.264       .  A
C518        O519   1.262       .  A
C518        C581   1.481       .  S
O519       Cr526   1.990       .  S
O520       Cr526   2.014   1_545  S
O520        C521   1.270       .  A
C521        O522   1.265   1_545  A
C521        C530   1.493       .  S
O522       Cr527   1.989       .  S
O523       Cr527   1.999       .  S
O523        C524   1.264       .  A
C524        C930   1.494       .  S
Cr525       O528   1.775       .  S
Cr526       O528   1.783       .  S
Cr527       O528   1.778       .  S
C529        C530   1.406       .  A
C529        C534   1.405       .  A
C529        H536   1.084       .  S
C530        C531   1.423       .  A
C531        C532   1.415       .  A
C531        C538   1.518       .  S
C532        C533   1.404       .  A
C532        H537   1.083       .  S
C533        C534   1.415       .  A
C534        C535   1.516       .  S
C535        F539   1.384       .  S
C535        F540   1.383       .  S
C535        F541   1.383       .  S
C538        F542   1.383       .  S
C538        F543   1.383       .  S
C538        F544   1.385       .  S
C545        C546   1.405       .  A
C545        C550   1.404       .  A
C545        H552   1.083       .  S
C546        C547   1.420       .  A
C547        C548   1.407       .  A
C547        C554   1.519       .  S
C548        C549   1.403       .  A
C548        H553   1.083       .  S
C549        C550   1.415       .  A
C550        C551   1.520       .  S
C551        F555   1.385       .  S
C551        F556   1.382       .  S
C551        F557   1.383       .  S
C554        F558   1.383       .  S
C554        F559   1.382       .  S
C554        F560   1.385       .  S
C561        C562   1.405       .  A
C561        C566   1.409       .  A
C561        H568   1.083       .  S
C562        C563   1.420       .  A
C563        C564   1.403       .  A
C563        C570   1.517       .  S
C564        C565   1.400       .  A
C564        H569   1.084       .  S
C565        C566   1.422       .  A
C566        C567   1.520       .  S
C567        F571   1.385       .  S
C567        F572   1.381       .  S
C567        F573   1.380       .  S
C570        F574   1.383       .  S
C570        F575   1.382       .  S
C570        F576   1.385       .  S
C577        C578   1.402       .  A
C577        C582   1.400       .  A
C577        H584   1.085       .  S
C578        C579   1.426       .  A
C579        C580   1.413       .  A
C579        C586   1.512       .  S
C580        C581   1.401       .  A
C580        H585   1.083       .  S
C581        C582   1.412       .  A
C582        C583   1.507       .  S
C583        F587   1.384       .  S
C583        F588   1.382       .  S
C583        F589   1.382       .  S
C586        F590   1.383       .  S
C586        F591   1.379   1_554  S
C586        F592   1.385       .  S
C593        C594   1.406       .  A
C593        C598   1.407       .  A
C593        H600   1.082       .  S
C594        C595   1.422       .  A
C595        C596   1.404       .  A
C595        C602   1.517       .  S
C596        C597   1.399       .  A
C596        H601   1.084       .  S
C597        C598   1.417       .  A
C598        C599   1.518       .  S
C599        F603   1.385       .  S
C599        F604   1.382       .  S
C599        F605   1.381       .  S
C602        F606   1.382       .  S
C602        F607   1.382       .  S
C602        F608   1.385       .  S
C609        C610   1.410       .  A
C609        C614   1.408       .  A
C609        H616   1.083       .  S
C610        C611   1.423       .  A
C611        C612   1.413       .  A
C611        C618   1.519       .  S
C612        C613   1.406       .  A
C612        H617   1.083       .  S
C613        C614   1.415       .  A
C614        C615   1.520       .  S
C615        F619   1.385       .  S
C615        F620   1.384       .  S
C615        F621   1.382       .  S
C618        F622   1.383       .  S
C618        F623   1.383       .  S
C618        F624   1.385       .  S
C625        C626   1.412       .  A
C625        C630   1.406       .  A
C625        H632   1.083   1_554  S
C626        C627   1.428       .  A
C627        C628   1.411       .  A
C627        C634   1.520       .  S
C628        C629   1.403       .  A
C628        H633   1.083       .  S
C629        C630   1.411       .  A
C630        C631   1.515       .  S
C631        F635   1.385   1_554  S
C631        F636   1.384       .  S
C631        F637   1.382       .  S
C634        F638   1.384       .  S
C634        F639   1.383       .  S
C634        F640   1.385       .  S
C641        C642   1.402       .  A
C641        C646   1.414       .  A
C641        H648   1.083       .  S
C642        C643   1.414       .  A
C643        C644   1.402       .  A
C643        C650   1.508       .  S
C644        C645   1.401       .  A
C644        H649   1.084       .  S
C645        C646   1.424       .  A
C646        C647   1.516       .  S
C647        F651   1.385       .  S
C647        F652   1.381       .  S
C647        F653   1.382       .  S
C650        F654   1.383       .  S
C650        F655   1.385       .  S
C650        F656   1.382       .  S
C657        C658   1.407       .  A
C657        C662   1.409       .  A
C657        H664   1.083       .  S
C658        C659   1.420       .  A
C659        C660   1.408       .  A
C659        C666   1.520       .  S
C660        C661   1.403       .  A
C660        H665   1.083   1_554  S
C661        C662   1.414       .  A
C662        C663   1.517       .  S
C663        F667   1.385       .  S
C663        F668   1.384       .  S
C663        F669   1.382       .  S
C666        F670   1.382       .  S
C666        F671   1.383       .  S
C666        F672   1.385       .  S
C673        C674   1.402       .  A
C673        C678   1.409       .  A
C673        H680   1.083       .  S
C674        C675   1.415       .  A
C675        C676   1.411       .  A
C675        C682   1.518       .  S
C676        C677   1.410       .  A
C676        H681   1.083       .  S
C677        C678   1.426       .  A
C678        C679   1.522       .  S
C679        F683   1.385       .  S
C679        F684   1.383       .  S
C679        F685   1.383       .  S
C682        F686   1.381       .  S
C682        F687   1.382       .  S
C682        F688   1.384       .  S
C689        C690   1.406       .  A
C689        C694   1.413       .  A
C689        H696   1.083       .  S
C690        C691   1.422       .  A
C691        C692   1.403       .  A
C691        C698   1.519       .  S
C692        C693   1.401       .  A
C692        H697   1.084       .  S
C693        C694   1.418       .  A
C694        C695   1.514       .  S
C695        F699   1.384       .  S
C695        F700   1.381   1_455  S
C695        F701   1.379       .  S
C698        F702   1.383       .  S
C698        F703   1.382       .  S
C698        F704   1.385       .  S
C705        C706   1.400       .  A
C705        C710   1.395       .  A
C705        H712   1.083       .  S
C706        C707   1.410       .  A
C707        C708   1.408       .  A
C707        C714   1.515       .  S
C708        C709   1.405       .  A
C708        H713   1.082       .  S
C709        C710   1.412       .  A
C710        C711   1.519       .  S
C711        F715   1.385       .  S
C711        F716   1.380       .  S
C711        F717   1.383       .  S
C714        F718   1.385       .  S
C714        F719   1.382       .  S
C714        F720   1.384       .  S
C721        C722   1.400       .  A
C721        C726   1.400       .  A
C721        H728   1.082       .  S
C722        C723   1.421       .  A
C723        C724   1.417       .  A
C723        C730   1.517       .  S
C724        C725   1.410       .  A
C724        H729   1.083       .  S
C725        C726   1.433       .  A
C726        C727   1.527       .  S
C727        F731   1.385       .  S
C727        F732   1.383       .  S
C727        F733   1.380       .  S
C730        F734   1.381       .  S
C730        F735   1.382       .  S
C730        F736   1.385       .  S
C737        C738   1.402       .  A
C737        C742   1.413       .  A
C737        H744   1.083       .  S
C738        C739   1.424       .  A
C739        C740   1.412       .  A
C739        C746   1.522       .  S
C740        C741   1.408       .  A
C740        H745   1.082       .  S
C741        C742   1.429       .  A
C742        C743   1.520   1_556  S
C743        F747   1.385       .  S
C743        F748   1.382       .  S
C743        F749   1.383       .  S
C746        F750   1.383       .  S
C746        F751   1.382       .  S
C746        F752   1.385       .  S
C753        C754   1.408       .  A
C753        C758   1.409       .  A
C753        H760   1.082       .  S
C754        C755   1.419       .  A
C755        C756   1.409       .  A
C755        C762   1.519       .  S
C756        C757   1.409       .  A
C756        H761   1.082       .  S
C757        C758   1.426       .  A
C758        C759   1.523       .  S
C759        F763   1.385       .  S
C759        F764   1.383       .  S
C759        F765   1.384       .  S
C762        F766   1.382       .  S
C762        F767   1.383   1_455  S
C762        F768   1.385       .  S
C769        C770   1.405       .  A
C769        C774   1.409       .  A
C769        H776   1.083       .  S
C770        C771   1.414       .  A
C771        C772   1.395       .  A
C771        C778   1.521       .  S
C772        C773   1.400       .  A
C772        H777   1.084       .  S
C773        C774   1.411       .  A
C774        C775   1.514       .  S
C775        F779   1.385       .  S
C775        F780   1.383       .  S
C775        F781   1.382       .  S
C778        F782   1.382       .  S
C778        F783   1.381       .  S
C778        F784   1.385       .  S
C785        C786   1.397       .  A
C785        C790   1.406       .  A
C785        H792   1.083       .  S
C786        C787   1.418       .  A
C787        C788   1.413       .  A
C787        C794   1.513       .  S
C788        C789   1.408       .  A
C788        H793   1.082       .  S
C789        C790   1.433       .  A
C790        C791   1.525       .  S
C791        F795   1.385       .  S
C791        F796   1.384       .  S
C791        F797   1.382   1_556  S
C794        F798   1.382       .  S
C794        F799   1.382       .  S
C794        F800   1.385       .  S
C801        C802   1.403       .  A
C801        C806   1.403       .  A
C801        H808   1.084       .  S
C802        C803   1.415       .  A
C803        C804   1.412       .  A
C803        C810   1.517       .  S
C804        C805   1.409       .  A
C804        H809   1.083       .  S
C805        C806   1.423       .  A
C806        C807   1.523       .  S
C807        F811   1.385       .  S
C807        F812   1.381       .  S
C807        F813   1.383       .  S
C810        F814   1.383       .  S
C810        F815   1.379       .  S
C810        F816   1.384       .  S
C817        C818   1.401       .  A
C817        C822   1.404       .  A
C817        H824   1.084       .  S
C818        C819   1.414       .  A
C819        C820   1.403       .  A
C819        C826   1.519       .  S
C820        C821   1.407       .  A
C820        H825   1.083       .  S
C821        C822   1.421       .  A
C822        C823   1.516       .  S
C823        F827   1.385       .  S
C823        F828   1.384       .  S
C823        F829   1.381       .  S
C826        F830   1.382       .  S
C826        F831   1.382       .  S
C826        F832   1.384       .  S
C833        C834   1.404       .  A
C833        C838   1.401       .  A
C833        H840   1.085       .  S
C834        C835   1.425       .  A
C835        C836   1.406       .  A
C835        C842   1.513       .  S
C836        C837   1.395       .  A
C836        H841   1.084       .  S
C837        C838   1.413       .  A
C838        C839   1.514       .  S
C839        F843   1.384       .  S
C839        F844   1.383       .  S
C839        F845   1.383       .  S
C842        F846   1.379       .  S
C842        F847   1.382       .  S
C842        F848   1.385       .  S
C849        C850   1.400       .  A
C849        C854   1.411       .  A
C849        H856   1.085       .  S
C850        C851   1.411       .  A
C851        C852   1.396       .  A
C851        C858   1.510       .  S
C852        C853   1.397       .  A
C852        H857   1.085       .  S
C853        C854   1.423       .  A
C854        C855   1.513       .  S
C855        F859   1.385       .  S
C855        F860   1.381       .  S
C855        F861   1.383       .  S
C858        F862   1.384       .  S
C858        F863   1.379       .  S
C858        F864   1.383       .  S
C865        C866   1.410       .  A
C865        C870   1.417       .  A
C865        H872   1.082       .  S
C866        C867   1.428       .  A
C867        C868   1.406       .  A
C867        C874   1.523       .  S
C868        C869   1.401       .  A
C868        H873   1.083       .  S
C869        C870   1.421       .  A
C870        C871   1.518       .  S
C871        F875   1.385       .  S
C871        F876   1.384       .  S
C871        F877   1.383       .  S
C874        F878   1.384       .  S
C874        F879   1.384       .  S
C874        F880   1.385       .  S
C881        C882   1.401       .  A
C881        C886   1.403       .  A
C881        H888   1.077       .  S
C882        C883   1.418       .  A
C883        C884   1.412       .  A
C883        C890   1.513       .  S
C884        C885   1.405       .  A
C884        H889   1.075       .  S
C885        C886   1.419       .  A
C886        C887   1.518       .  S
C887        F891   1.385       .  S
C887        F892   1.383       .  S
C887        F893   1.380       .  S
C890        F894   1.381       .  S
C890        F895   1.381       .  S
C890        F896   1.383       .  S
C897        C898   1.404       .  A
C897        C902   1.412       .  A
C897        H904   1.083       .  S
C898        C899   1.422       .  A
C899        C900   1.407       .  A
C899        C906   1.519       .  S
C900        C901   1.402       .  A
C900        H905   1.084       .  S
C901        C902   1.422       .  A
C902        C903   1.518       .  S
C903        F907   1.385       .  S
C903        F908   1.382       .  S
C903        F909   1.382       .  S
C906        F910   1.383       .  S
C906        F911   1.382       .  S
C906        F912   1.385       .  S
C913        C914   1.398       .  A
C913        C918   1.396       .  A
C913        H920   1.083       .  S
C914        C915   1.412       .  A
C915        C916   1.409       .  A
C915        C922   1.514       .  S
C916        C917   1.403       .  A
C916        H921   1.082       .  S
C917        C918   1.413       .  A
C918        C919   1.517       .  S
C919        F923   1.385       .  S
C919        F924   1.382       .  S
C919        F925   1.381       .  S
C922        F926   1.379       .  S
C922        F927   1.383       .  S
C922        F928   1.385       .  S
C929        C930   1.404       .  A
C929        C934   1.404       .  A
C929        H936   1.083       .  S
C930        C931   1.423       .  A
C931        C932   1.407       .  A
C931        C938   1.512       .  S
C932        C933   1.400       .  A
C932        H937   1.083       .  S
C933        C934   1.421       .  A
C934        C935   1.519       .  S
C935        F939   1.385       .  S
C935        F940   1.379       .  S
C935        F941   1.381       .  S
C938        F942   1.383       .  S
C938        F943   1.385       .  S
C938        F944   1.377       .  S
C945        C946   1.410       .  A
C945        C950   1.411       .  A
C945        H952   1.083       .  S
C946        C947   1.418       .  A
C947        C948   1.411       .  A
C947        C954   1.518       .  S
C948        C949   1.406       .  A
C948        H953   1.084       .  S
C949        C950   1.416       .  A
C950        C951   1.519       .  S
C951        F955   1.385       .  S
C951        F956   1.382       .  S
C951        F957   1.384       .  S
C954        F958   1.384       .  S
C954        F959   1.382       .  S
C954        F960   1.385       .  S
C961        C962   1.404       .  A
C961        C966   1.406       .  A
C961        H968   1.082       .  S
C962        C963   1.419       .  A
C963        C964   1.402       .  A
C963        C970   1.517       .  S
C964        C965   1.400       .  A
C964        H969   1.084       .  S
C965        C966   1.412       .  A
C966        C967   1.514       .  S
C967        F971   1.384       .  S
C967        F972   1.384       .  S
C967        F973   1.380       .  S
C970        F974   1.379       .  S
C970        F975   1.381       .  S
C970        F976   1.385       .  S
C977        C978   1.412       .  A
C977        C982   1.410       .  A
C977        H984   1.082       .  S
C978        C979   1.429       .  A
C979        C980   1.415       .  A
C979        C986   1.517       .  S
C980        C981   1.401       .  A
C980        H985   1.083       .  S
C981        C982   1.415       .  A
C982        C983   1.518       .  S
C983        F987   1.385       .  S
C983        F988   1.382       .  S
C983        F989   1.384       .  S
C986        F990   1.383       .  S
C986        F991   1.381       .  S
C986        F992   1.385       .  S
C993        C994   1.407       .  A
C993        C998   1.412       .  A
C993       H1000   1.084       .  S
C994        C995   1.422       .  A
C995        C996   1.404       .  A
C995       C1002   1.518       .  S
C996        C997   1.404       .  A
C996       H1001   1.083       .  S
C997        C998   1.422       .  A
C998        C999   1.518       .  S
C999       F1003   1.385       .  S
C999       F1004   1.379       .  S
C999       F1005   1.384       .  S
C1002      F1006   1.382       .  S
C1002      F1007   1.383       .  S
C1002      F1008   1.385       .  S
C1009      C1010   1.412       .  A
C1009      C1014   1.409       .  A
C1009      H1016   1.082       .  S
C1010      C1011   1.420       .  A
C1011      C1012   1.405       .  A
C1011      C1018   1.520       .  S
C1012      C1013   1.405       .  A
C1012      H1017   1.084       .  S
C1013      C1014   1.417       .  A
C1014      C1015   1.521       .  S
C1015      F1019   1.385       .  S
C1015      F1020   1.382       .  S
C1015      F1021   1.383       .  S
C1018      F1022   1.383       .  S
C1018      F1023   1.383       .  S
C1018      F1024   1.385       .  S
C1025      C1026   1.403       .  A
C1025      C1030   1.411       .  A
C1025      H1032   1.084       .  S
C1026      C1027   1.414       .  A
C1027      C1028   1.406       .  A
C1027      C1034   1.515       .  S
C1028      C1029   1.404       .  A
C1028      H1033   1.080       .  S
C1029      C1030   1.422       .  A
C1030      C1031   1.513       .  S
C1031      F1035   1.385       .  S
C1031      F1036   1.383       .  S
C1031      F1037   1.377       .  S
C1034      F1038   1.385       .  S
C1034      F1039   1.380       .  S
C1034      F1040   1.385       .  S
C1041      C1042   1.405       .  A
C1041      C1046   1.405       .  A
C1041      H1048   1.083       .  S
C1042      C1043   1.417       .  A
C1043      C1044   1.409       .  A
C1043      C1050   1.519       .  S
C1044      C1045   1.408       .  A
C1044      H1049   1.083       .  S
C1045      C1046   1.418       .  A
C1046      C1047   1.518       .  S
C1047      F1051   1.385       .  S
C1047      F1052   1.380       .  S
C1047      F1053   1.383       .  S
C1050      F1054   1.383       .  S
C1050      F1055   1.384       .  S
C1050      F1056   1.384       .  S
C1057      C1058   1.415       .  A
C1057      C1062   1.410       .  A
C1057      H1064   1.083       .  S
C1058      C1059   1.428       .  A
C1059      C1060   1.407       .  A
C1059      C1066   1.521       .  S
C1060      C1061   1.397       .  A
C1060      H1065   1.084       .  S
C1061      C1062   1.408       .  A
C1062      C1063   1.517       .  S
C1063      F1067   1.384       .  S
C1063      F1068   1.383       .  S
C1063      F1069   1.383       .  S
C1066      F1070   1.383       .  S
C1066      F1071   1.383       .  S
C1066      F1072   1.385       .  S
C1073      C1074   1.405       .  A
C1073      C1078   1.399       .  A
C1073      H1080   1.083       .  S
C1074      C1075   1.419       .  A
C1075      C1076   1.418       .  A
C1075      C1082   1.516       .  S
C1076      C1077   1.409       .  A
C1076      H1081   1.083       .  S
C1077      C1078   1.420       .  A
C1078      C1079   1.524       .  S
C1079      F1083   1.385       .  S
C1079      F1084   1.381       .  S
C1079      F1085   1.382       .  S
C1082      F1086   1.383       .  S
C1082      F1087   1.383       .  S
C1082      F1088   1.385       .  S
C1089      C1090   1.405       .  A
C1089      C1094   1.414       .  A
C1089      H1096   1.083       .  S
C1090      C1091   1.424       .  A
C1091      C1092   1.408       .  A
C1091      C1098   1.517       .  S
C1092      C1093   1.403       .  A
C1092      H1097   1.085       .  S
C1093      C1094   1.426       .  A
C1094      C1095   1.519       .  S
C1095      F1099   1.385       .  S
C1095      F1100   1.382       .  S
C1095      F1101   1.381       .  S
C1098      F1102   1.382       .  S
C1098      F1103   1.382       .  S
C1098      F1104   1.384       .  S
C1105      C1106   1.408       .  A
C1105      C1110   1.412       .  A
C1105      H1112   1.083       .  S
C1106      C1107   1.421       .  A
C1107      C1108   1.413       .  A
C1107      C1114   1.519       .  S
C1108      C1109   1.408       .  A
C1108      H1113   1.083       .  S
C1109      C1110   1.421       .  A
C1110      C1111   1.519       .  S
C1111      F1115   1.385       .  S
C1111      F1116   1.383       .  S
C1111      F1117   1.382       .  S
C1114      F1118   1.383       .  S
C1114      F1119   1.383       .  S
C1114      F1120   1.385       .  S
C1121      C1122   1.408       .  A
C1121      C1126   1.417       .  A
C1121      H1128   1.083       .  S
C1122      C1123   1.428       .  A
C1123      C1124   1.404       .  A
C1123      C1130   1.523       .  S
C1124      C1125   1.405       .  A
C1124      H1129   1.082       .  S
C1125      C1126   1.422       .  A
C1126      C1127   1.517       .  S
C1127      F1131   1.385       .  S
C1127      F1132   1.384       .  S
C1127      F1133   1.380       .  S
C1130      F1134   1.381       .  S
C1130      F1135   1.383       .  S
C1130      F1136   1.386       .  S
C1137      C1138   1.403       .  A
C1137      C1142   1.412       .  A
C1137      H1144   1.083       .  S
C1138      C1139   1.412       .  A
C1139      C1140   1.404       .  A
C1139      C1146   1.516       .  S
C1140      C1141   1.410       .  A
C1140      H1145   1.084       .  S
C1141      C1142   1.424       .  A
C1142      C1143   1.515       .  S
C1143      F1147   1.385       .  S
C1143      F1148   1.378       .  S
C1143      F1149   1.383       .  S
C1146      F1150   1.382       .  S
C1146      F1151   1.382       .  S
C1146      F1152   1.384       .  S
C1153      C1154   1.405       .  A
C1153      C1158   1.405       .  A
C1153      H1160   1.085       .  S
C1154      C1155   1.423       .  A
C1155      C1156   1.405       .  A
C1155      C1162   1.516       .  S
C1156      C1157   1.397       .  A
C1156      H1161   1.084       .  S
C1157      C1158   1.415       .  A
C1158      C1159   1.518       .  S
C1159      F1163   1.384       .  S
C1159      F1164   1.382       .  S
C1159      F1165   1.383       .  S
C1162      F1166   1.382       .  S
C1162      F1167   1.379       .  S
C1162      F1168   1.385       .  S
C1169      C1170   1.402       .  A
C1169      C1174   1.405       .  A
C1169      H1176   1.085       .  S
C1170      C1171   1.415       .  A
C1171      C1172   1.410       .  A
C1171      C1178   1.516       .  S
C1172      C1173   1.404       .  A
C1172      H1177   1.084       .  S
C1173      C1174   1.417       .  A
C1174      C1175   1.517       .  S
C1175      F1179   1.384       .  S
C1175      F1180   1.383       .  S
C1175      F1181   1.382       .  S
C1178      F1182   1.382       .  S
C1178      F1183   1.383       .  S
C1178      F1184   1.384       .  S
C1185      C1186   1.404       .  A
C1185      C1190   1.411       .  A
C1185      H1192   1.083       .  S
C1186      C1187   1.427       .  A
C1187      C1188   1.413       .  A
C1187      C1194   1.520       .  S
C1188      C1189   1.401       .  A
C1188      H1193   1.083       .  S
C1189      C1190   1.420       .  A
C1190      C1191   1.517       .  S
C1191      F1195   1.384       .  S
C1191      F1196   1.382       .  S
C1191      F1197   1.383       .  S
C1194      F1198   1.381       .  S
C1194      F1199   1.381       .  S
C1194      F1200   1.385       .  S
C1201      C1202   1.405       .  A
C1201      C1206   1.410       .  A
C1201      H1208   1.083       .  S
C1202      C1203   1.418       .  A
C1203      C1204   1.400       .  A
C1203      C1210   1.514       .  S
C1204      C1205   1.397       .  A
C1204      H1209   1.084       .  S
C1205      C1206   1.413       .  A
C1206      C1207   1.514       .  S
C1207      F1211   1.385       .  S
C1207      F1212   1.382       .  S
C1207      F1213   1.383       .  S
C1210      F1214   1.382       .  S
C1210      F1215   1.381       .  S
C1210      F1216   1.385       .  S
C1217      C1218   1.405       .  A
C1217      C1222   1.409       .  A
C1217      H1224   1.084       .  S
C1218      C1219   1.425       .  A
C1219      C1220   1.412       .  A
C1219      C1226   1.519       .  S
C1220      C1221   1.401       .  A
C1220      H1225   1.083       .  S
C1221      C1222   1.415       .  A
C1222      C1223   1.516       .  S
C1223      F1227   1.384       .  S
C1223      F1228   1.384       .  S
C1223      F1229   1.381       .  S
C1226      F1230   1.379       .  S
C1226      F1231   1.381       .  S
C1226      F1232   1.385       .  S
C1233      C1234   1.401       .  A
C1233      C1238   1.414       .  A
C1233      H1240   1.083       .  S
C1234      C1235   1.420       .  A
C1235      C1236   1.411       .  A
C1235      C1242   1.519   1_455  S
C1236      C1237   1.406       .  A
C1236      H1241   1.083       .  S
C1237      C1238   1.428       .  A
C1238      C1239   1.520       .  S
C1239      F1243   1.385       .  S
C1239      F1244   1.383       .  S
C1239      F1245   1.383       .  S
C1242      F1246   1.382       .  S
C1242      F1247   1.383       .  S
C1242      F1248   1.385       .  S
C1249      C1250   1.394       .  A
C1249      C1254   1.401       .  A
C1249      H1256   1.085       .  S
C1250      C1251   1.415       .  A
C1251      C1252   1.403       .  A
C1251      C1258   1.517       .  S
C1252      C1253   1.402       .  A
C1252      H1257   1.082       .  S
C1253      C1254   1.423       .  A
C1254      C1255   1.513       .  S
C1255      F1259   1.385       .  S
C1255      F1260   1.378       .  S
C1255      F1261   1.380       .  S
C1258      F1262   1.381       .  S
C1258      F1263   1.384       .  S
C1258      F1264   1.382       .  S
C1265      C1266   1.403       .  A
C1265      C1270   1.404       .  A
C1265      H1272   1.085       .  S
C1266      C1267   1.416       .  A
C1267      C1268   1.416       .  A
C1267      C1274   1.514       .  S
C1268      C1269   1.406       .  A
C1268      H1273   1.082       .  S
C1269      C1270   1.414       .  A
C1270      C1271   1.515       .  S
C1271      F1275   1.383       .  S
C1271      F1276   1.384       .  S
C1271      F1277   1.381       .  S
C1274      F1278   1.382       .  S
C1274      F1279   1.382       .  S
C1274      F1280   1.384       .  S
C1281      C1282   1.403       .  A
C1281      C1286   1.405       .  A
C1281      H1288   1.084       .  S
C1282      C1283   1.415       .  A
C1283      C1284   1.404       .  A
C1283      C1290   1.514       .  S
C1284      C1285   1.401       .  A
C1284      H1289   1.084       .  S
C1285      C1286   1.419       .  A
C1286      C1287   1.519       .  S
C1287      F1291   1.385       .  S
C1287      F1292   1.381       .  S
C1287      F1293   1.381       .  S
C1290      F1294   1.381       .  S
C1290      F1295   1.381       .  S
C1290      F1296   1.383       .  S
C1297      C1298   1.405       .  A
C1297      C1302   1.406       .  A
C1297      H1304   1.084       .  S
C1298      C1299   1.419       .  A
C1299      C1300   1.413       .  A
C1299      C1306   1.517       .  S
C1300      C1301   1.411       .  A
C1300      H1305   1.082   1_455  S
C1301      C1302   1.422       .  A
C1302      C1303   1.519       .  S
C1303      F1307   1.385       .  S
C1303      F1308   1.383       .  S
C1303      F1309   1.383   1_455  S
C1306      F1310   1.382       .  S
C1306      F1311   1.382       .  S
C1306      F1312   1.385   1_455  S
C1313      C1314   1.405       .  A
C1313      C1318   1.404       .  A
C1313      H1320   1.082   1_565  S
C1314      C1315   1.424       .  A
C1315      C1316   1.413       .  A
C1315      C1322   1.519       .  S
C1316      C1317   1.408       .  A
C1316      H1321   1.082       .  S
C1317      C1318   1.425       .  A
C1318      C1319   1.520       .  S
C1319      F1323   1.385       .  S
C1319      F1324   1.377       .  S
C1319      F1325   1.383       .  S
C1322      F1326   1.383       .  S
C1322      F1327   1.383       .  S
C1322      F1328   1.385       .  S
C1329      C1330   1.406       .  A
C1329      C1334   1.400       .  A
C1329      H1336   1.080       .  S
C1330      C1331   1.425       .  A
C1331      C1332   1.408       .  A
C1331      C1338   1.520       .  S
C1332      C1333   1.402       .  A
C1332      H1337   1.083       .  S
C1333      C1334   1.412       .  A
C1334      C1335   1.517       .  S
C1335      F1339   1.383       .  S
C1335      F1340   1.383       .  S
C1335      F1341   1.384       .  S
C1338      F1342   1.382       .  S
C1338      F1343   1.382       .  S
C1338      F1344   1.385       .  S
C1345      C1346   1.411       .  A
C1345      C1350   1.414       .  A
C1345      H1352   1.083       .  S
C1346      C1347   1.423       .  A
C1347      C1348   1.408       .  A
C1347      C1354   1.517       .  S
C1348      C1349   1.405       .  A
C1348      H1353   1.083       .  S
C1349      C1350   1.418       .  A
C1350      C1351   1.518       .  S
C1351      F1355   1.384       .  S
C1351      F1356   1.383       .  S
C1351      F1357   1.384       .  S
C1354      F1358   1.378       .  S
C1354      F1359   1.383       .  S
C1354      F1360   1.385       .  S
C1361      C1362   1.402       .  A
C1361      C1366   1.408       .  A
C1361      H1368   1.083       .  S
C1362      C1363   1.414       .  A
C1363      C1364   1.405       .  A
C1363      C1370   1.514       .  S
C1364      C1365   1.408       .  A
C1364      H1369   1.083       .  S
C1365      C1366   1.429       .  A
C1366      C1367   1.522       .  S
C1367      F1371   1.385       .  S
C1367      F1372   1.384       .  S
C1367      F1373   1.384       .  S
C1370      F1374   1.382       .  S
C1370      F1375   1.382       .  S
C1370      F1376   1.385       .  S
C1377      C1378   1.405       .  A
C1377      C1382   1.408       .  A
C1377      H1384   1.084       .  S
C1378      C1379   1.413       .  A
C1379      C1380   1.407       .  A
C1379      C1386   1.520       .  S
C1380      C1381   1.412       .  A
C1380      H1385   1.082       .  S
C1381      C1382   1.421       .  A
C1382      C1383   1.520       .  S
C1383      F1387   1.385       .  S
C1383      F1388   1.384       .  S
C1383      F1389   1.383       .  S
C1386      F1390   1.383   1_455  S
C1386      F1391   1.383       .  S
C1386      F1392   1.384       .  S
C1393      C1394   1.409       .  A
C1393      C1398   1.413       .  A
C1393      H1400   1.082       .  S
C1394      C1395   1.424       .  A
C1395      C1396   1.405       .  A
C1395      C1402   1.518       .  S
C1396      C1397   1.407       .  A
C1396      H1401   1.082       .  S
C1397      C1398   1.424       .  A
C1398      C1399   1.521       .  S
C1399      F1403   1.385       .  S
C1399      F1404   1.383       .  S
C1399      F1405   1.384       .  S
C1402      F1406   1.382       .  S
C1402      F1407   1.378       .  S
C1402      F1408   1.385       .  S
C1409      C1410   1.399       .  A
C1409      C1414   1.401       .  A
C1409      H1416   1.084       .  S
C1410      C1411   1.414       .  A
C1411      C1412   1.414       .  A
C1411      C1418   1.516       .  S
C1412      C1413   1.406       .  A
C1412      H1417   1.083       .  S
C1413      C1414   1.415       .  A
C1414      C1415   1.514       .  S
C1415      F1419   1.383       .  S
C1415      F1420   1.378       .  S
C1415      F1421   1.383       .  S
C1418      F1422   1.379       .  S
C1418      F1423   1.383       .  S
C1418      F1424   1.384       .  S
C1425      C1426   1.398       .  A
C1425      C1430   1.403       .  A
C1425      H1432   1.085       .  S
C1426      C1427   1.416       .  A
C1427      C1428   1.414       .  A
C1427      C1434   1.513       .  S
C1428      C1429   1.404       .  A
C1428      H1433   1.083       .  S
C1429      C1430   1.419       .  A
C1430      C1431   1.513       .  S
C1431      F1435   1.385       .  S
C1431      F1436   1.378       .  S
C1431      F1437   1.383       .  S
C1434      F1438   1.383       .  S
C1434      F1439   1.382       .  S
C1434      F1440   1.384       .  S
C1441      C1442   1.404       .  A
C1441      C1446   1.408       .  A
C1441      H1448   1.083       .  S
C1442      C1443   1.425       .  A
C1443      C1444   1.409       .  A
C1443      C1450   1.519       .  S
C1444      C1445   1.399       .  A
C1444      H1449   1.083       .  S
C1445      C1446   1.416       .  A
C1446      C1447   1.515       .  S
C1447      F1451   1.384       .  S
C1447      F1452   1.382       .  S
C1447      F1453   1.381       .  S
C1450      F1454   1.382       .  S
C1450      F1455   1.380       .  S
C1450      F1456   1.385       .  S
C1457      C1458   1.404       .  A
C1457      C1462   1.409       .  A
C1457      H1464   1.083       .  S
C1458      C1459   1.422       .  A
C1459      C1460   1.406       .  A
C1459      C1466   1.519       .  S
C1460      C1461   1.402       .  A
C1460      H1465   1.084       .  S
C1461      C1462   1.419       .  A
C1462      C1463   1.516       .  S
C1463      F1467   1.385       .  S
C1463      F1468   1.383   1_565  S
C1463      F1469   1.382       .  S
C1466      F1470   1.383       .  S
C1466      F1471   1.382       .  S
C1466      F1472   1.385       .  S
C1473      C1474   1.404       .  A
C1473      C1478   1.408       .  A
C1473      H1480   1.084       .  S
C1474      C1475   1.416       .  A
C1475      C1476   1.409       .  A
C1475      C1482   1.518       .  S
C1476      C1477   1.405       .  A
C1476      H1481   1.083       .  S
C1477      C1478   1.416       .  A
C1478      C1479   1.517       .  S
C1479      F1483   1.385       .  S
C1479      F1484   1.382       .  S
C1479      F1485   1.384       .  S
C1482      F1486   1.382       .  S
C1482      F1487   1.382       .  S
C1482      F1488   1.385       .  S
C1489      C1490   1.405       .  A
C1489      C1494   1.405       .  A
C1489      H1496   1.082       .  S
C1490      C1491   1.424       .  A
C1491      C1492   1.406       .  A
C1491      C1498   1.517       .  S
C1492      C1493   1.398       .  A
C1492      H1497   1.084       .  S
C1493      C1494   1.410       .  A
C1494      C1495   1.513       .  S
C1495      F1499   1.382       .  S
C1495      F1500   1.375       .  S
C1495      F1501   1.385       .  S
C1498      F1502   1.383       .  S
C1498      F1503   1.378       .  S
C1498      F1504   1.385       .  S
C1505      C1506   1.406       .  A
C1505      C1510   1.403       .  A
C1505      H1512   1.084       .  S
C1506      C1507   1.422       .  A
C1507      C1508   1.419       .  A
C1507      C1514   1.517       .  S
C1508      C1509   1.408       .  A
C1508      H1513   1.082       .  S
C1509      C1510   1.414       .  A
C1510      C1511   1.514       .  S
C1511      F1515   1.384       .  S
C1511      F1516   1.380       .  S
C1511      F1517   1.384       .  S
C1514      F1518   1.383       .  S
C1514      F1519   1.383       .  S
C1514      F1520   1.385       .  S
C1521      C1522   1.400       .  A
C1521      C1526   1.408       .  A
C1521      H1528   1.084       .  S
C1522      C1523   1.417       .  A
C1523      C1524   1.411       .  A
C1523      C1530   1.513       .  S
C1524      C1525   1.402       .  A
C1524      H1529   1.084       .  S
C1525      C1526   1.418       .  A
C1526      C1527   1.514       .  S
C1527      F1531   1.385       .  S
C1527      F1532   1.383       .  S
C1527      F1533   1.380       .  S
C1530      F1534   1.384       .  S
C1530      F1535   1.381       .  S
C1530      F1536   1.385       .  S
C1537      C1538   1.403       .  A
C1537      C1542   1.407       .  A
C1537      H1544   1.084       .  S
C1538      C1539   1.425       .  A
C1539      C1540   1.408       .  A
C1539      C1546   1.521       .  S
C1540      C1541   1.399       .  A
C1540      H1545   1.083       .  S
C1541      C1542   1.417       .  A
C1542      C1543   1.517   1_655  S
C1543      F1547   1.382       .  S
C1543      F1548   1.382       .  S
C1543      F1549   1.385       .  S
C1546      F1550   1.382       .  S
C1546      F1551   1.379       .  S
C1546      F1552   1.385       .  S
C1553      C1554   1.405       .  A
C1553      C1558   1.408       .  A
C1553      H1560   1.084   1_545  S
C1554      C1555   1.418       .  A
C1555      C1556   1.412       .  A
C1555      C1562   1.519       .  S
C1556      C1557   1.409       .  A
C1556      H1561   1.082       .  S
C1557      C1558   1.421       .  A
C1558      C1559   1.519       .  S
C1559      F1563   1.385   1_545  S
C1559      F1564   1.382       .  S
C1559      F1565   1.384       .  S
C1562      F1566   1.384       .  S
C1562      F1567   1.383       .  S
C1562      F1568   1.385       .  S
C1569      C1570   1.400       .  A
C1569      C1574   1.398       .  A
C1569      H1576   1.083       .  S
C1570      C1571   1.421       .  A
C1571      C1572   1.406       .  A
C1571      C1578   1.513       .  S
C1572      C1573   1.397       .  A
C1572      H1577   1.084       .  S
C1573      C1574   1.413       .  A
C1574      C1575   1.513       .  S
C1575      F1579   1.384       .  S
C1575      F1580   1.381       .  S
C1575      F1581   1.383       .  S
C1578      F1582   1.382       .  S
C1578      F1583   1.379       .  S
C1578      F1584   1.385       .  S
C1585      C1586   1.400       .  A
C1585      C1590   1.407       .  A
C1585      H1592   1.084       .  S
C1586      C1587   1.417       .  A
C1587      C1588   1.415       .  A
C1587      C1594   1.514       .  S
C1588      C1589   1.407       .  A
C1588      H1593   1.082       .  S
C1589      C1590   1.426       .  A
C1590      C1591   1.521       .  S
C1591      F1595   1.385       .  S
C1591      F1596   1.383       .  S
C1591      F1597   1.382       .  S
C1594      F1598   1.383       .  S
C1594      F1599   1.380       .  S
C1594      F1600   1.384       .  S
C1601      C1602   1.407       .  A
C1601      C1606   1.405       .  A
C1601      H1608   1.084       .  S
C1602      C1603   1.426       .  A
C1603      C1604   1.413       .  A
C1603      C1610   1.517       .  S
C1604      C1605   1.401       .  A
C1604      H1609   1.083       .  S
C1605      C1606   1.412       .  A
C1606      C1607   1.513       .  S
C1607      F1611   1.384       .  S
C1607      F1612   1.384       .  S
C1607      F1613   1.380       .  S
C1610      F1614   1.378       .  S
C1610      F1615   1.383       .  S
C1610      F1616   1.385       .  S
C1617      C1618   1.407       .  A
C1617      C1622   1.410       .  A
C1617      H1624   1.081       .  S
C1618      C1619   1.423       .  A
C1619      C1620   1.398       .  A
C1619      C1626   1.522       .  S
C1620      C1621   1.397       .  A
C1620      H1625   1.083       .  S
C1621      C1622   1.409       .  A
C1622      C1623   1.513       .  S
C1623      F1627   1.385       .  S
C1623      F1628   1.383       .  S
C1623      F1629   1.381       .  S
C1626      F1630   1.383       .  S
C1626      F1631   1.382       .  S
C1626      F1632   1.386       .  S
C1633      C1634   1.405       .  A
C1633      C1638   1.410       .  A
C1633      H1640   1.083       .  S
C1634      C1635   1.417       .  A
C1635      C1636   1.402       .  A
C1635      C1642   1.512       .  S
C1636      C1637   1.398       .  A
C1636      H1641   1.084   1_565  S
C1637      C1638   1.417       .  A
C1638      C1639   1.517       .  S
C1639      F1643   1.384       .  S
C1639      F1644   1.382       .  S
C1639      F1645   1.383       .  S
C1642      F1646   1.382       .  S
C1642      F1647   1.384       .  S
C1642      F1648   1.385   1_565  S
C1649      C1650   1.406       .  A
C1649      C1654   1.406       .  A
C1649      H1656   1.081       .  S
C1650      C1651   1.417       .  A
C1651      C1652   1.399       .  A
C1651      C1658   1.517       .  S
C1652      C1653   1.401       .  A
C1652      H1657   1.085       .  S
C1653      C1654   1.413       .  A
C1654      C1655   1.516       .  S
C1655      F1659   1.385       .  S
C1655      F1660   1.382       .  S
C1655      F1661   1.383       .  S
C1658      F1662   1.383       .  S
C1658      F1663   1.383       .  S
C1658      F1664   1.385       .  S
C1665      C1666   1.404       .  A
C1665      C1670   1.406       .  A
C1665      H1672   1.083       .  S
C1666      C1667   1.426       .  A
C1667      C1668   1.410       .  A
C1667      C1674   1.520       .  S
C1668      C1669   1.400       .  A
C1668      H1673   1.083       .  S
C1669      C1670   1.416       .  A
C1670      C1671   1.513       .  S
C1671      F1675   1.385       .  S
C1671      F1676   1.382       .  S
C1671      F1677   1.380       .  S
C1674      F1678   1.382       .  S
C1674      F1679   1.382       .  S
C1674      F1680   1.385       .  S
