geometry optimzed in LAMMPS
_audit_creation_date              2020-11-30 
_audit_creation_method            'lammps2cif' 
_symmetry_space_group_name_H-M    'P1' 
_symmetry_Int_Tables_number       1 
_symmetry_cell_setting            triclinic 
loop_ 
_symmetry_equiv_pos_as_xyz 
  x,y,z 
_cell_length_a                    53.29969078992152 
_cell_length_b                    53.26075044336109 
_cell_length_c                    53.37380329331188 
_cell_angle_alpha                 90.00746288389928 
_cell_angle_beta                  89.94974079329144 
_cell_angle_gamma                 90.09280591993233 
loop_ 
_atom_site_label 
_atom_site_type_symbol 
_atom_site_fract_x 
_atom_site_fract_y 
_atom_site_fract_z 
_atom_site_charge 
O1          O  0.89470554  0.71912674  0.26598462    -0.85520
O2          O  0.93653056  0.74363688  0.28296551    -0.82570
C3          C  0.94758537  0.75370276  0.26461670     0.97940
O4          O  0.93784582  0.77187866  0.25303964    -0.82600
O5          O  0.89806569  0.79806834  0.23200872    -0.85250
C6          C  0.88517125  0.78229293  0.21917819     1.02470
O7          O  0.87173133  0.76611449  0.22982565    -0.78010
O8          O  0.85583407  0.73183980  0.26369609    -0.78200
C9          C  0.87209579  0.71473828  0.26125861     1.02420
O10         O  0.86700943  0.73752657  0.30928670    -0.85520
O11         O  0.90692363  0.76449579  0.32196354    -0.82580
C12         C  0.92149775  0.78293256  0.32251770     0.97960
O13         O  0.92869067  0.79349773  0.30228804    -0.82610
O14         O  0.88867383  0.81873560  0.28367370    -0.85220
C15         C  0.86665021  0.82213479  0.27619695     1.02430
O16         O  0.85688713  0.80657189  0.26132159    -0.78040
O17         O  0.84720119  0.77183410  0.29847923    -0.78180
C18         C  0.84964945  0.75336892  0.31300423     1.02390
Cr19       Cr  0.90077248  0.74305212  0.29347226     1.93740
Cr20       Cr  0.91180732  0.79391754  0.26803380     1.93210
Cr21       Cr  0.86013458  0.76918213  0.26405610     1.39100
O22         O  0.89128625  0.76870628  0.27497737    -1.23270
O23         O  0.02082863  0.84086172  0.47691533    -0.85520
O24         O  0.99660003  0.79737804  0.46274677    -0.82570
C25         C  0.98509681  0.78642305  0.48029724     0.97940
O26         O  0.96601538  0.79612236  0.49041067    -0.82600
O27         O  0.94098700  0.83723030  0.51051987    -0.85250
C28         C  0.95663343  0.85043556  0.52315028     1.02470
O29         O  0.97329124  0.86326209  0.51235270    -0.78010
O30         O  0.00675051  0.87924957  0.47723147    -0.78200
C31         C  0.02445491  0.86391978  0.48031844     1.02420
O32         O  0.00126690  0.86514909  0.43221839    -0.85520
O33         O  0.97567171  0.82404360  0.42155943    -0.82580
C34         C  0.95585915  0.81139845  0.42114288     0.97960
O35         O  0.94469481  0.80518229  0.44128589    -0.82610
O36         O  0.92022145  0.84600781  0.45895958    -0.85220
C37         C  0.91684121  0.86791280  0.46687010     1.02430
O38         O  0.93278297  0.87749309  0.48131709    -0.78040
O39         O  0.96701561  0.88554198  0.44257916    -0.78180
C40         C  0.98510172  0.88198438  0.42764559     1.02390
Cr41       Cr  0.99663189  0.83236629  0.44999549     1.93740
Cr42       Cr  0.94481127  0.82261920  0.47496486     1.93210
Cr43       Cr  0.96991007  0.87403354  0.47766077     1.39100
O44         O  0.97054358  0.84251176  0.46776549    -1.23270
O45         O  0.46918377  0.00851553  0.85928749    -0.85520
O46         O  0.47717141  0.98820665  0.81263056    -0.82570
C47         C  0.48099889  0.97219853  0.79568773     0.97940
O48         O  0.47756231  0.94899353  0.80015954    -0.82600
O49         O  0.51287854  0.93614010  0.83647696    -0.85250
C50         C  0.52287828  0.93601786  0.85795840     1.02470
O51         O  0.50920315  0.93628179  0.87723492    -0.78010
O52         O  0.50034391  0.98719127  0.87551622    -0.78200
C53         C  0.49017828  0.00794356  0.87046487     1.02420
O54         O  0.42446094  0.97770846  0.86379531    -0.85520
O55         O  0.43092085  0.96095308  0.81592199    -0.82580
C56         C  0.42408708  0.93854455  0.81980359     0.97960
O57         O  0.43935077  0.92289449  0.82893958    -0.82610
O58         O  0.47451120  0.90506450  0.86192616    -0.85220
C59         C  0.46189281  0.90732546  0.88205478     1.02430
O60         O  0.45777166  0.92879613  0.89093599    -0.78040
O61         O  0.45127932  0.97914507  0.89463887    -0.78180
C62         C  0.42896485  0.97892608  0.88688912     1.02390
Cr63       Cr  0.45172636  0.98214523  0.83874298     1.93740
Cr64       Cr  0.47579916  0.92998870  0.83291933     1.93210
Cr65       Cr  0.47906230  0.95773878  0.88241083     1.39100
O66         O  0.46896446  0.95672723  0.85118792    -1.23270
O67         O  0.27594619  0.86679409  0.73081103    -0.85520
O68         O  0.27008187  0.91589731  0.74787237    -0.82570
C69         C  0.26671298  0.93378988  0.76304065     0.97940
O70         O  0.26899960  0.92996399  0.78641734    -0.82600
O71         O  0.23268823  0.89432554  0.80018471    -0.85250
C72         C  0.22261021  0.87282777  0.80162738     1.02470
O73         O  0.23637130  0.85382950  0.80424171    -0.78010
O74         O  0.24522217  0.85146361  0.75372457    -0.78200
C75         C  0.25547832  0.85470914  0.73272621     1.02420
O76         O  0.32095971  0.86270673  0.76077942    -0.85520
O77         O  0.31586989  0.91198332  0.77536317    -0.82580
C78         C  0.32168020  0.91077103  0.79831847     0.97960
O79         O  0.30616945  0.90269926  0.81440446    -0.82610
O80         O  0.27026708  0.87073766  0.83387871    -0.85220
C81         C  0.28275448  0.85039027  0.83315936     1.02430
O82         O  0.28783492  0.84051129  0.81241113    -0.78040
O83         O  0.29361530  0.83222403  0.76270148    -0.78180
C84         C  0.31595588  0.83955382  0.76066464     1.02390
Cr85       Cr  0.29431376  0.88862076  0.75554579     1.93740
Cr86       Cr  0.26977617  0.89818880  0.80708021     1.93210
Cr87       Cr  0.26644724  0.84680072  0.78323532     1.39100
O88         O  0.27687398  0.87807711  0.78175603    -1.23270
O89         O  0.27691361  0.10181063  0.76340352    -0.85520
O90         O  0.26907741  0.05456895  0.74301798    -0.82570
C91         C  0.26632545  0.03704917  0.72739829     0.97940
O92         O  0.26919202  0.04162976  0.70419075    -0.82600
O93         O  0.23292795  0.07846713  0.69281601    -0.85250
C94         C  0.22306158  0.10011948  0.69278143     1.02470
O95         O  0.23696303  0.11924246  0.69129708    -0.78010
O96         O  0.24671069  0.11932405  0.74164178    -0.78200
C97         C  0.25687159  0.11457111  0.76238649     1.02420
O98         O  0.32161957  0.10613483  0.73357896    -0.85520
O99         O  0.31533832  0.05859937  0.71562436    -0.82580
C100        C  0.32194582  0.06237638  0.69313036     0.97960
O101        O  0.30641652  0.07112381  0.67745037    -0.82610
O102        O  0.27001422  0.10359228  0.65988605    -0.85220
C103        C  0.28276952  0.12374737  0.66139008     1.02430
O104        O  0.28839577  0.13250336  0.68251694    -0.78040
O105        O  0.29578644  0.13806169  0.73260976    -0.78180
C106        C  0.31746882  0.12925247  0.73578008     1.02390
Cr107      Cr  0.29434661  0.08106931  0.73707909     1.93740
Cr108      Cr  0.26990578  0.07480134  0.68527371     1.93210
Cr109      Cr  0.26760721  0.12503503  0.71192458     1.39100
O110        O  0.27733685  0.09355700  0.71158414    -1.23270
O111        O  0.46974023  0.97171476  0.63031841    -0.85520
O112        O  0.47861687  0.99193779  0.67643546    -0.82570
C113        C  0.48223289  0.00742765  0.69383293     0.97940
O114        O  0.47921966  0.03074234  0.68976422    -0.82600
O115        O  0.51512148  0.04230838  0.65325606    -0.85250
C116        C  0.52520756  0.04185826  0.63175384     1.02470
O117        O  0.51154831  0.04291397  0.61249438    -0.78010
O118        O  0.50097221  0.99242473  0.61321842    -0.78200
C119        C  0.49063826  0.97192037  0.61901257     1.02420
O120        O  0.42569615  0.00286828  0.62597098    -0.85520
O121        O  0.43295083  0.01990675  0.67383296    -0.82580
C122        C  0.42624905  0.04236248  0.67019653     0.97960
O123        O  0.44167213  0.05801474  0.66104080    -0.82610
O124        O  0.47829353  0.07503672  0.62819343    -0.85220
C125        C  0.46589161  0.07338135  0.60793450     1.02430
O126        O  0.46026482  0.05219314  0.59917694    -0.78040
O127        O  0.45208531  0.00186098  0.59452989    -0.78180
C128        C  0.43016912  0.99937279  0.60310669     1.02390
Cr129      Cr  0.45303689  0.99844121  0.65079832     1.93740
Cr130      Cr  0.47822812  0.04990210  0.65696160     1.93210
Cr131      Cr  0.48055562  0.02253641  0.60702134     1.39100
O132        O  0.47060126  0.02354912  0.63833057    -1.23270
O133        O  0.76856856  0.26288709  0.11423683    -0.85520
O134        O  0.74833532  0.25639070  0.06713040    -0.82570
C135        C  0.73220378  0.25322490  0.05010285     0.97940
O136        O  0.70897985  0.25453853  0.05549754    -0.82600
O137        O  0.69787565  0.21760300  0.09214724    -0.85250
C138        C  0.69833782  0.20730603  0.11360656     1.02470
O139        O  0.69748647  0.22093289  0.13283689    -0.78010
O140        O  0.74843808  0.23087262  0.13069249    -0.78200
C141        C  0.76873588  0.24155124  0.12471564     1.02420
O142        O  0.73735815  0.30670073  0.12098686    -0.85520
O143        O  0.72028818  0.30119433  0.07294972    -0.82580
C144        C  0.69770241  0.30730232  0.07637446     0.97960
O145        O  0.68224323  0.29147305  0.08516149    -0.82610
O146        O  0.66569262  0.25514495  0.11811175    -0.85220
C147        C  0.66804173  0.26780769  0.13820491     1.02430
O148        O  0.68945970  0.27183360  0.14720129    -0.78040
O149        O  0.73951316  0.27923150  0.15123985    -0.78180
C150        C  0.73926427  0.30170855  0.14397703     1.02390
Cr151      Cr  0.74190326  0.28038308  0.09477197     1.93740
Cr152      Cr  0.69041096  0.25485123  0.08881279     1.93210
Cr153      Cr  0.71858564  0.25134779  0.13820806     1.39100
O154        O  0.71708492  0.26211987  0.10705055    -1.23270
O155        O  0.63212987  0.44778184  0.97968675    -0.85520
O156        O  0.67779480  0.46016372  0.00039235    -0.82570
C157        C  0.69402889  0.46562308  0.01665453     0.97940
O158        O  0.68881680  0.46425612  0.03981548    -0.82600
O159        O  0.64858907  0.49791976  0.04906854    -0.85250
C160        C  0.62579219  0.50466958  0.04771124     1.02470
O161        O  0.60919246  0.48826281  0.05061592    -0.78010
O162        O  0.61279028  0.47842590  0.99922141    -0.78200
C163        C  0.61994347  0.46822563  0.97906030     1.02420
O164        O  0.62965468  0.40428144  0.01298344    -0.85520
O165        O  0.67668115  0.41566683  0.03034825    -0.82580
C166        C  0.67289526  0.41012287  0.05306468     0.97960
O167        O  0.66279756  0.42580389  0.06774058    -0.82610
O168        O  0.62662046  0.45881351  0.08244030    -0.85220
C169        C  0.60767901  0.44431983  0.08085537     1.02430
O170        O  0.59999249  0.43721511  0.05963357    -0.78040
O171        O  0.59742373  0.42893919  0.00884378    -0.78180
C172        C  0.60631435  0.40724607  0.01087818     1.02390
Cr173      Cr  0.65307140  0.43321955  0.00745309     1.93740
Cr174      Cr  0.65580524  0.46136498  0.05806321     1.93210
Cr175      Cr  0.60687963  0.45788964  0.02966239     1.39100
O176        O  0.63882576  0.45086292  0.03159158    -1.23270
O177        O  0.10977278  0.75801682  0.28795879    -0.85520
O178        O  0.06473210  0.73649187  0.27467513    -0.82570
C179        C  0.04890937  0.72035172  0.26764400     0.97940
O180        O  0.05404292  0.69709541  0.26894906    -0.82600
O181        O  0.09303010  0.68970236  0.23440776    -0.85250
C182        C  0.11529648  0.69246907  0.22645986     1.02470
O183        O  0.13316751  0.69096740  0.24169722    -0.78010
O184        O  0.12849489  0.74095283  0.25566365    -0.78200
C185        C  0.12151133  0.76024876  0.26742926     1.02420
O186        O  0.11372644  0.72251883  0.32887064    -0.85520
O187        O  0.06656122  0.70447258  0.31741429    -0.82580
C188        C  0.07121929  0.68171565  0.32197540     0.97960
O189        O  0.08179612  0.66803338  0.30576022    -0.82610
O190        O  0.11728400  0.65568345  0.27029790    -0.85220
C191        C  0.13741902  0.65752984  0.28285160     1.02430
O192        O  0.14375885  0.67834791  0.29209270    -0.78040
O193        O  0.14576130  0.72812699  0.30391540    -0.78180
C194        C  0.13683052  0.72644344  0.32561099     1.02390
Cr195      Cr  0.08965161  0.72873812  0.30085141     1.93740
Cr196      Cr  0.08740341  0.67931865  0.27053671     1.93210
Cr197      Cr  0.13564624  0.70935704  0.27377198     1.39100
O198        O  0.10404182  0.70593038  0.28160999    -1.23270
O199        O  0.98489196  0.62656486  0.48557202    -0.85520
O200        O  0.00484165  0.67072637  0.46887250    -0.82570
C201        C  0.01888420  0.68503601  0.48155883     0.97940
O202        O  0.04071051  0.67848076  0.48810152    -0.82600
O203        O  0.06407178  0.64129268  0.51553791    -0.85250
C204        C  0.04828862  0.62989120  0.52989184     1.02470
O205        O  0.03150943  0.61575822  0.52092447    -0.78010
O206        O  0.00143726  0.58973270  0.48796115    -0.78200
C207        C  0.98360913  0.60414918  0.49271000     1.02420
O208        O  0.00710987  0.60080820  0.44156843    -0.85520
O209        O  0.02586204  0.64536415  0.42691123    -0.82580
C210        C  0.04670045  0.65590708  0.42356043     0.97960
O211        O  0.06156080  0.66040276  0.44157169    -0.82610
O212        O  0.08588322  0.62282322  0.46513956    -0.85220
C213        C  0.08787028  0.60289301  0.47738748     1.02430
O214        O  0.07341723  0.60053016  0.49543771    -0.78040
O215        O  0.04166656  0.58281157  0.45594168    -0.78180
C216        C  0.02403057  0.58388980  0.43997612     1.02390
Cr217      Cr  0.00770211  0.63543931  0.45715842     1.93740
Cr218      Cr  0.06131828  0.64927226  0.47756765     1.93210
Cr219      Cr  0.03706189  0.59917750  0.48894887     1.39100
O220        O  0.03518798  0.62866337  0.47427125    -1.23270
O221        O  0.85898290  0.45930040  0.02351337    -0.85520
O222        O  0.81339324  0.46513420  0.00055408    -0.82570
C223        C  0.79707994  0.46859842  0.98387157     0.97940
O224        O  0.80303779  0.46815153  0.96077083    -0.82600
O225        O  0.84004082  0.50524613  0.95148130    -0.85250
C226        C  0.86156468  0.51535861  0.95282266     1.02470
O227        O  0.88069138  0.50163288  0.95349152    -0.78010
O228        O  0.87517858  0.49190544  0.00415456    -0.78200
C229        C  0.86968164  0.48063363  0.02423890     1.02420
O230        O  0.86788687  0.41562361  0.99160706    -0.85520
O231        O  0.82084678  0.42054511  0.97216181    -0.82580
C232        C  0.82606639  0.41508192  0.94972996     0.97960
O233        O  0.83428851  0.43175119  0.93493118    -0.82610
O234        O  0.86828406  0.46828073  0.92065003    -0.85220
C235        C  0.88901772  0.45710727  0.92476473     1.02430
O236        O  0.89439511  0.45048706  0.94669606    -0.78040
O237        O  0.89648088  0.44415016  0.99700133    -0.78180
C238        C  0.89049520  0.42143798  0.99505083     1.02390
Cr239      Cr  0.84107592  0.44154441  0.99537618     1.93740
Cr240      Cr  0.83726166  0.46807509  0.94375444     1.93210
Cr241      Cr  0.88459274  0.47143951  0.97497347     1.39100
O242        O  0.85391091  0.46056744  0.97151815    -1.23270
O243        O  0.73296547  0.27055309  0.88210004    -0.85520
O244        O  0.75190529  0.26543526  0.92994174    -0.82570
C245        C  0.76754663  0.26005248  0.94688183     0.97940
O246        O  0.79090782  0.26068716  0.94209199    -0.82600
O247        O  0.80160338  0.22372486  0.90633620    -0.85250
C248        C  0.80179955  0.21325048  0.88506112     1.02470
O249        O  0.80325393  0.22663445  0.86571031    -0.78010
O250        O  0.75267421  0.23769040  0.86690370    -0.78200
C251        C  0.73251040  0.24899196  0.87197593     1.02420
O252        O  0.76576851  0.31354479  0.87454463    -0.85520
O253        O  0.78189106  0.30947541  0.92291370    -0.82580
C254        C  0.80513072  0.31349244  0.92069273     0.97960
O255        O  0.81989009  0.29651259  0.91324455    -0.82610
O256        O  0.83554553  0.26007179  0.88050308    -0.85220
C257        C  0.83393815  0.27238372  0.86009825     1.02430
O258        O  0.81281559  0.27699715  0.85072761    -0.78040
O259        O  0.76299351  0.28516591  0.84529517    -0.78180
C260        C  0.76402631  0.30784983  0.85170788     1.02390
Cr261      Cr  0.75985652  0.28823797  0.90157790     1.93740
Cr262      Cr  0.81021390  0.26057491  0.90935836     1.93210
Cr263      Cr  0.78305290  0.25733316  0.85947210     1.39100
O264        O  0.78425815  0.26872736  0.89042314    -1.23270
O265        O  0.75188358  0.74922034  0.85855003    -0.85520
O266        O  0.71771730  0.71623969  0.87612307    -0.82570
C267        C  0.70077035  0.70639472  0.88924108     0.97940
O268        O  0.68483591  0.72003827  0.90086806    -0.82600
O269        O  0.71064048  0.74254402  0.94023580    -0.85250
C270        C  0.72903308  0.75419062  0.94966293     1.02470
O271        O  0.73928878  0.77226539  0.93819709    -0.78010
O272        O  0.76490283  0.75484468  0.89700183    -0.78200
C273        C  0.76848792  0.74673310  0.87515439     1.02420
O274        O  0.71252435  0.78390452  0.84759340    -0.85520
O275        O  0.67764506  0.74687998  0.85862828    -0.82580
C276        C  0.66194357  0.76240660  0.86693282     0.97960
O277        O  0.66471973  0.77109132  0.88863347    -0.82610
O278        O  0.68868786  0.79087885  0.92888859    -0.85220
C279        C  0.69870699  0.81099171  0.92094052     1.02430
O280        O  0.71782253  0.81067109  0.90723619    -0.78040
O281        O  0.74587204  0.79656994  0.86801642    -0.78180
C282        C  0.73034186  0.79931689  0.85026322     1.02390
Cr283      Cr  0.71483008  0.75002368  0.86246606     1.93740
Cr284      Cr  0.68899158  0.75639085  0.91315989     1.93210
Cr285      Cr  0.74006258  0.78200713  0.90213056     1.39100
O286        O  0.71474004  0.76262915  0.89298689    -1.23270
O287        O  0.61544285  0.98820090  0.99426026    -0.85520
O288        O  0.61459112  0.99869807  0.94377684    -0.82570
C289        C  0.63427778  0.01190107  0.94367911     0.97940
O290        O  0.65554008  0.00139393  0.94281089    -0.82600
O291        O  0.69164930  0.96550821  0.95469444    -0.85250
C292        C  0.69636958  0.96889586  0.97778086     1.02470
O293        O  0.67921854  0.96577020  0.99378578    -0.78010
O294        O  0.63273377  0.95704591  0.01465402    -0.78200
C295        C  0.62180512  0.97809740  0.01466334     1.02420
O296        O  0.59607704  0.93903245  0.98434185    -0.85520
O297        O  0.60016210  0.94754138  0.93445397    -0.82580
C298        C  0.60897378  0.95231761  0.91312173     0.97960
O299        O  0.62954479  0.96425687  0.91111334    -0.82610
O300        O  0.66240597  0.92767176  0.92872711    -0.85220
C301        C  0.67205069  0.91275782  0.94451542     1.02430
O302        O  0.67567281  0.91990275  0.96674736    -0.78040
O303        O  0.62778894  0.91289127  0.98408919    -0.78180
C304        C  0.60456830  0.91697564  0.98566033     1.02390
Cr305      Cr  0.60884932  0.96772182  0.96407864     1.93740
Cr306      Cr  0.65858933  0.96437729  0.93604795     1.93210
Cr307      Cr  0.65290785  0.94023703  0.98799916     1.39100
O308        O  0.64016729  0.95747204  0.96278205    -1.23270
O309        O  0.74071163  0.84146858  0.24554181    -0.85520
O310        O  0.77219667  0.85936282  0.27993586    -0.82570
C311        C  0.78144557  0.87295298  0.29673876     0.97940
O312        O  0.76739847  0.88454875  0.31235105    -0.82600
O313        O  0.74239836  0.92285541  0.28582700    -0.85250
C314        C  0.72819521  0.93201697  0.26914538     1.02470
O315        O  0.71082944  0.91889430  0.25974956    -0.78010
O316        O  0.73283842  0.87994963  0.23328675    -0.78200
C317        C  0.74283874  0.85887218  0.22957275     1.02420
O318        O  0.70637425  0.82759605  0.28495765    -0.85520
O319        O  0.74250592  0.84013478  0.31976191    -0.82580
C320        C  0.72625065  0.84757231  0.33513438     0.97960
O321        O  0.71714692  0.86923629  0.33258990    -0.82610
O322        O  0.69473523  0.90815475  0.30822216    -0.85220
C323        C  0.67509469  0.89837551  0.29873381     1.02430
O324        O  0.67658380  0.88369094  0.28041214    -0.78040
O325        O  0.69380798  0.84678105  0.25107822    -0.78180
C326        C  0.69107600  0.82947535  0.26709212     1.02390
Cr327      Cr  0.73936690  0.84419616  0.28263585     1.93740
Cr328      Cr  0.73037873  0.89477387  0.30815894     1.93210
Cr329      Cr  0.70516054  0.88194025  0.25785148     1.39100
O330        O  0.72528494  0.87405486  0.28280073    -1.23270
O331        O  0.50106185  0.98012143  0.37845974    -0.85520
O332        O  0.48873249  0.92987321  0.37768349    -0.82570
C333        C  0.47497730  0.93128472  0.35853822     0.97940
O334        O  0.48494488  0.93136638  0.33694142    -0.82600
O335        O  0.52214222  0.94114336  0.30047036    -0.85250
C336        C  0.52063347  0.96440691  0.29564255     1.02470
O337        O  0.52487239  0.98029081  0.31265462    -0.78010
O338        O  0.53207817  0.00009028  0.35988995    -0.78200
C339        C  0.51168935  0.00037046  0.37211963     1.02420
O340        O  0.54914955  0.96825326  0.39722216    -0.85520
O341        O  0.54020422  0.91855490  0.38978084    -0.82580
C342        C  0.53165563  0.89784067  0.38241642     0.97960
O343        O  0.51980731  0.89679088  0.36182706    -0.82610
O344        O  0.55728203  0.91264220  0.32950864    -0.85220
C345        C  0.57416884  0.92762342  0.32207232     1.02430
O346        O  0.56954215  0.95065007  0.31864149    -0.78040
O347        O  0.57575023  0.96881872  0.36611852    -0.78180
C348        C  0.57127729  0.97012267  0.38927508     1.02390
Cr349      Cr  0.52045870  0.94903467  0.38345665     1.93740
Cr350      Cr  0.52153366  0.92231271  0.33329968     1.93210
Cr351      Cr  0.54902782  0.97314012  0.34011618     1.39100
O352        O  0.53023845  0.94847123  0.35208445    -1.23270
O353        O  0.76761035  0.84150422  0.75257969    -0.85520
O354        O  0.73408058  0.85825933  0.71913370    -0.82570
C355        C  0.72371036  0.87128180  0.70254328     0.97940
O356        O  0.73677615  0.88461854  0.68733654    -0.82600
O357        O  0.75983043  0.92490334  0.71337915    -0.85250
C358        C  0.77211462  0.93433972  0.73144827     1.02470
O359        O  0.78981899  0.92210090  0.74142071    -0.78010
O360        O  0.77188598  0.87998444  0.76626028    -0.78200
C361        C  0.76362408  0.85797685  0.76907903     1.02420
O362        O  0.80221995  0.83240649  0.71245149    -0.85520
O363        O  0.76455248  0.84245132  0.67856103    -0.82580
C364        C  0.77961168  0.85138868  0.66277817     0.97960
O365        O  0.78776064  0.87335983  0.66588666    -0.82610
O366        O  0.80786720  0.91331742  0.69064188    -0.85220
C367        C  0.82805712  0.90506301  0.70029131     1.02430
O368        O  0.82766610  0.89119976  0.71929993    -0.78040
O369        O  0.81405146  0.85154104  0.74673912    -0.78180
C370        C  0.81741659  0.83462782  0.73036365     1.02390
Cr371      Cr  0.76809257  0.84597075  0.71566032     1.93740
Cr372      Cr  0.77323196  0.89754776  0.69104770     1.93210
Cr373      Cr  0.79922553  0.88576596  0.74160835     1.39100
O374        O  0.77984352  0.87692342  0.71623790    -1.23270
O375        O  0.00302255  0.98747296  0.61911384    -0.85520
O376        O  0.01490166  0.93710526  0.61594355    -0.82570
C377        C  0.02806199  0.93599548  0.63553573     0.97940
O378        O  0.01753817  0.93507660  0.65678000    -0.82600
O379        O  0.98089390  0.94568794  0.69292906    -0.85250
C380        C  0.98272244  0.96895144  0.69801703     1.02470
O381        O  0.97858472  0.98513464  0.68131830    -0.78010
O382        O  0.97023921  0.00627722  0.63527229    -0.78200
C383        C  0.99185230  0.00737801  0.62546979     1.02420
O384        O  0.95474895  0.97689828  0.59856562    -0.85520
O385        O  0.96425341  0.92704666  0.60099334    -0.82580
C386        C  0.96891483  0.90554410  0.60951190     0.97960
O387        O  0.98097365  0.90321227  0.62995661    -0.82610
O388        O  0.94450202  0.91841460  0.66327056    -0.85220
C389        C  0.92832317  0.93330752  0.67215027     1.02430
O390        O  0.93393095  0.95592483  0.67640549    -0.78040
O391        O  0.92752926  0.97318070  0.62892448    -0.78180
C392        C  0.93234154  0.97524956  0.60595220     1.02390
Cr393      Cr  0.98359800  0.95691445  0.61087633     1.93740
Cr394      Cr  0.98064226  0.92739817  0.65965392     1.93210
Cr395      Cr  0.95400200  0.97845133  0.65457038     1.39100
O396        O  0.97284828  0.95429828  0.64186820    -1.23270
O397        O  0.86693699  0.24153246  0.75199831    -0.85520
O398        O  0.86696326  0.29258414  0.76214433    -0.82570
C399        C  0.88692276  0.29259715  0.77476055     0.97940
O400        O  0.90791986  0.29243075  0.76374353    -0.82600
O401        O  0.94245454  0.27910564  0.72689324    -0.85250
C402        C  0.94672092  0.25571343  0.72925076     1.02470
O403        O  0.92924495  0.24006252  0.72571948    -0.78010
O404        O  0.88139679  0.22114398  0.71934431    -0.78200
C405        C  0.87128853  0.22107756  0.74085191     1.02420
O406        O  0.84578422  0.25168381  0.70418237    -0.85520
O407        O  0.85118544  0.30134172  0.71195943    -0.82580
C408        C  0.86096615  0.32255880  0.71516505     0.97960
O409        O  0.88159144  0.32461228  0.72695320    -0.82610
O410        O  0.91296685  0.30672212  0.69024296    -0.85220
C411        C  0.92174794  0.29106219  0.67480036     1.02430
O412        O  0.92451636  0.26837844  0.68099256    -0.78040
O413        O  0.87546928  0.25365748  0.67611520    -0.78180
C414        C  0.85246813  0.25284925  0.68157950     1.02390
Cr415      Cr  0.85994929  0.27188950  0.73195499     1.93740
Cr416      Cr  0.91004477  0.29898581  0.72673000     1.93210
Cr417      Cr  0.90182715  0.24751060  0.70191403     1.39100
O418        O  0.89082156  0.27267072  0.72040256    -1.23270
O419        O  0.00529074  0.36486566  0.49776884    -0.85520
O420        O  0.95487958  0.36509515  0.48391342    -0.82570
C421        C  0.95445004  0.34472696  0.47190833     0.97940
O422        O  0.95348364  0.32402742  0.48347233    -0.82600
O423        O  0.96432342  0.29016368  0.52158281    -0.85250
C424        C  0.98769481  0.28561928  0.52018881     1.02470
O425        O  0.00339671  0.30278537  0.52502461    -0.78010
O426        O  0.02254833  0.35048200  0.53219103    -0.78200
C427        C  0.02465476  0.35996776  0.51058451     1.02420
O428        O  0.99164965  0.38720056  0.54410033    -0.85520
O429        O  0.94222656  0.38229405  0.53317359    -0.82580
C430        C  0.92119572  0.37232518  0.52903800     0.97960
O431        O  0.91997118  0.35138784  0.51772560    -0.82610
O432        O  0.93520541  0.32087549  0.55630299    -0.85220
C433        C  0.94982807  0.31231660  0.57282981     1.02430
O434        O  0.97263404  0.30887229  0.56779179    -0.78040
O435        O  0.98793871  0.35821741  0.57283738    -0.78180
C436        C  0.98977357  0.38109032  0.56679795     1.02390
Cr437      Cr  0.97327865  0.37256211  0.51542679     1.93740
Cr438      Cr  0.94506435  0.32283486  0.52017138     1.93210
Cr439      Cr  0.99493488  0.33091473  0.54793895     1.39100
O440        O  0.97124446  0.34191680  0.52760627    -1.23270
O441        O  0.85762405  0.73731183  0.76482521    -0.85520
O442        O  0.87139941  0.70220936  0.73178803    -0.82570
C443        C  0.88456450  0.68578311  0.72124688     0.97940
O444        O  0.89696853  0.66970561  0.73407055    -0.82600
O445        O  0.93817857  0.69384652  0.75594599    -0.85250
C446        C  0.94848711  0.71189759  0.76747697     1.02470
O447        O  0.93754717  0.72226043  0.78571948    -0.78010
O448        O  0.89697251  0.74867980  0.76801269    -0.78200
C449        C  0.87504872  0.75272398  0.76030647     1.02420
O450        O  0.84647939  0.69872968  0.80073428    -0.85520
O451        O  0.85414108  0.66324652  0.76309753    -0.82580
C452        C  0.86281555  0.64697756  0.77770442     0.97960
O453        O  0.88510079  0.64902640  0.78525093    -0.82610
O454        O  0.92650559  0.67230806  0.80459087    -0.85220
C455        C  0.91964293  0.68302856  0.82479509     1.02430
O456        O  0.90635251  0.70245907  0.82439747    -0.78040
O457        O  0.86815602  0.73214472  0.81083844    -0.78180
C458        C  0.85006179  0.71730472  0.81500071     1.02390
Cr459      Cr  0.85972663  0.70014923  0.76608761     1.93740
Cr460      Cr  0.91021825  0.67295716  0.77024526     1.93210
Cr461      Cr  0.90162076  0.72445530  0.79568856     1.39100
O462        O  0.89094313  0.69919178  0.77705269    -1.23270
O463        O  0.00677818  0.59673456  0.98826960    -0.85520
O464        O  0.97214358  0.61475342  0.02027540    -0.82570
C465        C  0.95373371  0.62608964  0.02950718     0.97940
O466        O  0.93822657  0.63770062  0.01533287    -0.82600
O467        O  0.96385742  0.67780456  0.99152006    -0.85250
C468        C  0.98204689  0.68727438  0.97945861     1.02470
O469        O  0.99287841  0.67509433  0.96224249    -0.78010
O470        O  0.01922000  0.63521972  0.98145766    -0.78200
C471        C  0.02312002  0.61377384  0.99045134     1.02420
O472        O  0.96763031  0.58360556  0.95417757    -0.85520
O473        O  0.93233537  0.59479343  0.99031922    -0.82580
C474        C  0.91629849  0.60238629  0.97475570     0.97960
O475        O  0.91912061  0.62365403  0.96487716    -0.82610
O476        O  0.94275442  0.66384209  0.94357755    -0.85220
C477        C  0.95334540  0.65568900  0.92381102     1.02430
O478        O  0.97256179  0.64218775  0.92511650    -0.78040
O479        O  0.00091105  0.60381751  0.94083820    -0.78180
C480        C  0.98549261  0.58576412  0.93882173     1.02390
Cr481      Cr  0.96962775  0.59968847  0.98722613     1.93740
Cr482      Cr  0.94285089  0.64940381  0.97868858     1.93210
Cr483      Cr  0.99447109  0.63858889  0.95402424     1.39100
O484        O  0.96907008  0.62966986  0.97346025    -1.23270
O485        O  0.74401098  0.11837219  0.75099007    -0.85520
O486        O  0.73391586  0.12009317  0.80177753    -0.82570
C487        C  0.72061233  0.10064372  0.80037938     0.97940
O488        O  0.73120482  0.07935049  0.80063203    -0.82600
O489        O  0.76877261  0.04351568  0.78988326    -0.85250
C490        C  0.76784093  0.03796780  0.76670627     1.02470
O491        O  0.77127365  0.05488934  0.75045938    -0.78010
O492        O  0.77608658  0.10281316  0.73030075    -0.78200
C493        C  0.75497173  0.11377940  0.73055105     1.02420
O494        O  0.79148849  0.14012296  0.75987488    -0.85520
O495        O  0.78432341  0.13573283  0.80991582    -0.82580
C496        C  0.77994710  0.12687430  0.83129810     0.97960
O497        O  0.76795341  0.10622848  0.83346781    -0.82610
O498        O  0.80456236  0.07348516  0.81718519    -0.85220
C499        C  0.82119393  0.06623639  0.80186966     1.02430
O500        O  0.81608915  0.06286381  0.77900580    -0.78040
O501        O  0.81973222  0.11073238  0.76199811    -0.78180
C502        C  0.81412339  0.13363749  0.76067724     1.02390
Cr503      Cr  0.76413482  0.12627744  0.78075777     1.93740
Cr504      Cr  0.76829268  0.07675679  0.80855217     1.93210
Cr505      Cr  0.79426377  0.08364343  0.75714858     1.39100
O506        O  0.77557974  0.09529831  0.78203257    -1.23270
O507        O  0.00260204  0.99633728  0.87899814    -0.85520
O508        O  0.01274178  0.04702614  0.87601520    -0.82570
C509        C  0.02503184  0.04463259  0.85598269     0.97940
O510        O  0.01354390  0.04377454  0.83533399    -0.82600
O511        O  0.97597471  0.03016153  0.80214517    -0.85250
C512        C  0.97823210  0.00660206  0.79917125     1.02470
O513        O  0.97452355  0.99196126  0.81730735    -0.78010
O514        O  0.97002792  0.97505711  0.86554832    -0.78200
C515        C  0.99168383  0.97565522  0.87535299     1.02420
O516        O  0.95503779  0.00725240  0.90096194    -0.85520
O517        O  0.96264842  0.05646300  0.89258382    -0.82580
C518        C  0.96630881  0.07719678  0.88204401     0.97960
O519        O  0.97772462  0.07818849  0.86108454    -0.82610
O520        O  0.94040945  0.05945045  0.83082843    -0.85220
C521        C  0.92384535  0.04355550  0.82481728     1.02430
O522        O  0.92914427  0.02051540  0.82286810    -0.78040
O523        O  0.92651365  0.00650831  0.87157944    -0.78180
C524        C  0.93236794  0.00585136  0.89436492     1.02390
Cr525      Cr  0.98252071  0.02677288  0.88490056     1.93740
Cr526      Cr  0.97668464  0.05127191  0.83366345     1.93210
Cr527      Cr  0.95151287  0.00035276  0.84490860     1.39100
O528        O  0.97016908  0.02605798  0.85434088    -1.23270
O529        O  0.74603760  0.75092963  0.14204164    -0.85520
O530        O  0.77889004  0.71692721  0.12381253    -0.82570
C531        C  0.79580824  0.70666284  0.11104526     0.97940
O532        O  0.81150643  0.71990504  0.09852820    -0.82600
O533        O  0.78512571  0.74184484  0.05896314    -0.85250
C534        C  0.76647759  0.75331197  0.04985209     1.02470
O535        O  0.75612507  0.77118191  0.06153018    -0.78010
O536        O  0.73162488  0.75511995  0.10402174    -0.78200
C537        C  0.72886368  0.74744199  0.12614631     1.02420
O538        O  0.78688625  0.78482898  0.15021918    -0.85520
O539        O  0.82024976  0.74695049  0.13933748    -0.82580
C540        C  0.83575246  0.76258785  0.13079154     0.97960
O541        O  0.83235844  0.77125952  0.10915508    -0.82610
O542        O  0.80745937  0.79020332  0.06870738    -0.85220
C543        C  0.79764083  0.81043782  0.07656307     1.02430
O544        O  0.77889138  0.81018536  0.09075330    -0.78040
O545        O  0.75272458  0.79754938  0.13129490    -0.78180
C546        C  0.76955982  0.80069487  0.14780376     1.02390
Cr547      Cr  0.78299031  0.75079450  0.13665138     1.93740
Cr548      Cr  0.80741662  0.75605406  0.08533898     1.93210
Cr549      Cr  0.75666077  0.78193126  0.09731632     1.39100
O550        O  0.78216608  0.76266991  0.10593517    -1.23270
O551        O  0.88042286  0.98614490  0.99931092    -0.85520
O552        O  0.88065979  0.99583489  0.04985053    -0.82570
C553        C  0.86167259  0.00987086  0.04896602     0.97940
O554        O  0.83997246  0.00022692  0.04839212    -0.82600
O555        O  0.80317724  0.96463404  0.03640723    -0.85250
C556        C  0.79876613  0.96730526  0.01319162     1.02470
O557        O  0.81594171  0.96325223  0.99744517    -0.78010
O558        O  0.86319941  0.95543194  0.97792183    -0.78200
C559        C  0.87474993  0.97625616  0.97859258     1.02420
O560        O  0.89878721  0.93705976  0.00857199    -0.85520
O561        O  0.89336336  0.94439668  0.05868225    -0.82580
C562        C  0.88459767  0.95012432  0.07978826     0.97960
O563        O  0.86438912  0.96276405  0.08116765    -0.82610
O564        O  0.83120589  0.92723035  0.06349981    -0.85220
C565        C  0.82301785  0.91130098  0.04792433     1.02430
O566        O  0.81963750  0.91733069  0.02526431    -0.78040
O567        O  0.86730030  0.91077883  0.00860237    -0.78180
C568        C  0.89049831  0.91494179  0.00769207     1.02390
Cr569      Cr  0.88605364  0.96522991  0.02915207     1.93740
Cr570      Cr  0.83579367  0.96337324  0.05563948     1.93210
Cr571      Cr  0.84235888  0.93808166  0.00407029     1.39100
O572        O  0.85456622  0.95558053  0.02946816    -1.23270
O573        O  0.13264223  0.73325413  0.75365311    -0.85520
O574        O  0.13545686  0.78423070  0.74274841    -0.82570
C575        C  0.11943739  0.78025786  0.72604563     0.97940
O576        O  0.09643865  0.78134767  0.73233074    -0.82600
O577        O  0.05522936  0.77249999  0.76557979    -0.85250
C578        C  0.05012236  0.74916006  0.76500570     1.02470
O579        O  0.06660070  0.73346392  0.77133122    -0.78010
O580        O  0.11233641  0.71355689  0.78361975    -0.78200
C581        C  0.12463600  0.71308828  0.76328213     1.02420
O582        O  0.14743560  0.74400191  0.80334762    -0.85520
O583        O  0.14388951  0.79463712  0.79364925    -0.82580
C584        C  0.13659444  0.81552619  0.78524653     0.97960
O585        O  0.11747543  0.81651766  0.77088087    -0.82610
O586        O  0.08062429  0.80173936  0.80385219    -0.85220
C587        C  0.07203949  0.78703164  0.82049658     1.02430
O588        O  0.06768993  0.76431938  0.81524050    -0.78040
O589        O  0.11419227  0.74680002  0.82694970    -0.78180
C590        C  0.13758483  0.74481118  0.82473488     1.02390
Cr591      Cr  0.13771824  0.76401937  0.77370805     1.93740
Cr592      Cr  0.08830951  0.79135849  0.76859950     1.93210
Cr593      Cr  0.09124520  0.74124202  0.79796699     1.39100
O594        O  0.10553120  0.76541091  0.78016116    -1.23270
O595        O  0.99336165  0.87927684  0.98217053    -0.85520
O596        O  0.02643205  0.86222428  0.01608970    -0.82570
C597        C  0.04335725  0.84976949  0.02661541     0.97940
O598        O  0.06001924  0.83837887  0.01353411    -0.82600
O599        O  0.03526047  0.79884344  0.98913309    -0.85250
C600        C  0.01800171  0.78912145  0.97605319     1.02470
O601        O  0.00908901  0.80065814  0.95730125    -0.78010
O602        O  0.98160427  0.84067638  0.97415477    -0.78200
C603        C  0.97701192  0.86205074  0.98296442     1.02420
O604        O  0.03465512  0.89238090  0.94995015    -0.85520
O605        O  0.06785743  0.88096395  0.98760687    -0.82580
C606        C  0.08390849  0.87331184  0.97204929     0.97960
O607        O  0.08185206  0.85147905  0.96330130    -0.82610
O608        O  0.05917111  0.81073971  0.94175739    -0.85220
C609        C  0.05044994  0.81941851  0.92129841     1.02430
O610        O  0.03211339  0.83407785  0.92134908    -0.78040
O611        O  0.00228981  0.87202676  0.93497327    -0.78180
C612        C  0.01767544  0.89017691  0.93372920     1.02390
Cr613      Cr  0.03072277  0.87655160  0.98297849     1.93740
Cr614      Cr  0.05745045  0.82628838  0.97668253     1.93210
Cr615      Cr  0.00805907  0.83731590  0.94859072     1.39100
O616        O  0.03189245  0.84630649  0.96970483    -1.23270
O617        O  0.22790123  0.21412739  0.09792138    -0.85520
O618        O  0.25601845  0.19798897  0.05822407    -0.82570
C619        C  0.26702136  0.21540543  0.04645321     0.97940
O620        O  0.28561255  0.22691193  0.05568037    -0.82600
O621        O  0.30717325  0.25245807  0.09572741    -0.85250
C622        C  0.28999459  0.26593037  0.10578714     1.02470
O623        O  0.27148617  0.25584923  0.11654905    -0.78010
O624        O  0.23920916  0.22056937  0.13649171    -0.78200
C625        C  0.22237554  0.21997563  0.11999926     1.02420
O626        O  0.24948372  0.17398863  0.12847764    -0.85520
O627        O  0.27772705  0.16079838  0.08999856    -0.82580
C628        C  0.29791278  0.16009768  0.07808591     0.97960
O629        O  0.30865245  0.18018648  0.07091909    -0.82610
O630        O  0.32896219  0.20323136  0.11206641    -0.85220
C631        C  0.32884097  0.21360432  0.13323214     1.02430
O632        O  0.31261562  0.23011627  0.13733818    -0.78040
O633        O  0.28088152  0.19068694  0.14914224    -0.78180
C634        C  0.26497181  0.17337683  0.14652223     1.02390
Cr635      Cr  0.25459960  0.18847174  0.09407934     1.93740
Cr636      Cr  0.30577791  0.21541939  0.08483610     1.93210
Cr637      Cr  0.27621350  0.22343325  0.13286711     1.39100
O638        O  0.27873110  0.20916689  0.10337446    -1.23270
O639        O  0.35092267  0.00782956  0.97666259    -0.85520
O640        O  0.31002400  0.02478947  0.00271170    -0.82570
C641        C  0.29702613  0.00784069  0.01310421     0.97940
O642        O  0.30523408  0.99591483  0.03194637    -0.82600
O643        O  0.34411749  0.96803137  0.05363891    -0.85250
C644        C  0.35490583  0.95527633  0.03624806     1.02470
O645        O  0.36714849  0.96613393  0.01924436    -0.78010
O646        O  0.38899992  0.00134089  0.98957162    -0.78200
C647        C  0.37262377  0.99957117  0.97272642     1.02420
O648        O  0.38141787  0.04723142  0.00024147    -0.85520
O649        O  0.34155090  0.06098169  0.02656295    -0.82580
C650        C  0.32925692  0.06152407  0.04654313     0.97960
O651        O  0.32164120  0.04139409  0.05693440    -0.82610
O652        O  0.36119981  0.01674816  0.07837418    -0.85220
C653        C  0.38210584  0.00583335  0.07859108     1.02430
O654        O  0.38570186  0.98943686  0.06220596    -0.78040
O655        O  0.40057240  0.03009938  0.03246761    -0.78180
C656        C  0.39885696  0.04752639  0.01650540     1.02390
Cr657      Cr  0.34635188  0.03348590  0.00330632     1.93740
Cr658      Cr  0.33439113  0.00576812  0.05353056     1.93210
Cr659      Cr  0.38368065  0.99781119  0.02608619     1.39100
O660        O  0.35420545  0.01238036  0.02751831    -1.23270
O661        O  0.50153314  0.87761593  0.00839342    -0.85520
O662        O  0.46725707  0.86037381  0.97538052    -0.82570
C663        C  0.44932754  0.84880421  0.96546080     0.97940
O664        O  0.43346417  0.83694729  0.97899349    -0.82600
O665        O  0.45986147  0.79726507  0.00152081    -0.85250
C666        C  0.47716628  0.78750068  0.01444749     1.02470
O667        O  0.48609484  0.79882445  0.03327991    -0.78010
O668        O  0.51373997  0.83913905  0.01627201    -0.78200
C669        C  0.51825410  0.86079252  0.00793981     1.02420
O670        O  0.46133244  0.89032481  0.04214216    -0.85520
O671        O  0.42672249  0.87892755  0.00570817    -0.82580
C672        C  0.41028620  0.87005273  0.02030657     0.97960
O673        O  0.41307796  0.84843125  0.02929202    -0.82610
O674        O  0.43691210  0.80785788  0.04947795    -0.85220
C675        C  0.44578191  0.81638120  0.06986942     1.02430
O676        O  0.46391052  0.83137613  0.06996112    -0.78040
O677        O  0.49381973  0.86941044  0.05588637    -0.78180
C678        C  0.47882764  0.88770459  0.05774785     1.02390
Cr679      Cr  0.46407581  0.87460619  0.00882010     1.93740
Cr680      Cr  0.43762517  0.82405656  0.01509535     1.93210
Cr681      Cr  0.48753473  0.83514678  0.04224017     1.39100
O682        O  0.46321464  0.84429123  0.02183217    -1.23270
O683        O  0.37065030  0.73327418  0.24493022    -0.85520
O684        O  0.36716246  0.78355848  0.25791768    -0.82570
C685        C  0.38667354  0.78490405  0.27110384     0.97940
O686        O  0.40802999  0.78627892  0.26077113    -0.82600
O687        O  0.44435373  0.77556819  0.22447362    -0.85250
C688        C  0.44904962  0.75217537  0.22621679     1.02470
O689        O  0.43229452  0.73628909  0.22090030    -0.78010
O690        O  0.38619922  0.71581950  0.21116568    -0.78200
C691        C  0.37703420  0.71383560  0.23293387     1.02420
O692        O  0.34994247  0.74534490  0.19714712    -0.85520
O693        O  0.35218638  0.79485302  0.20821995    -0.82580
C694        C  0.36074930  0.81630575  0.21316152     0.97960
O695        O  0.38150534  0.81858031  0.22469453    -0.82610
O696        O  0.41452593  0.80366387  0.18769536    -0.85220
C697        C  0.42387305  0.78895367  0.17159940     1.02430
O698        O  0.42864526  0.76663235  0.17762752    -0.78040
O699        O  0.38020143  0.75035379  0.16993906    -0.78180
C700        C  0.35718882  0.74785889  0.17482808     1.02390
Cr701      Cr  0.36222138  0.76446429  0.22645771     1.93740
Cr702      Cr  0.41108900  0.79427242  0.22396034     1.93210
Cr703      Cr  0.40589402  0.74393356  0.19627795     1.39100
O704        O  0.39322585  0.76751817  0.21578107    -1.23270
O705        O  0.60264036  0.25632126  0.76961419    -0.85520
O706        O  0.56061521  0.23030928  0.78547883    -0.82570
C707        C  0.54874464  0.21920459  0.76821009     0.97940
O708        O  0.55822272  0.20063073  0.75684025    -0.82600
O709        O  0.59898008  0.17648245  0.73385541    -0.85250
C710        C  0.61096088  0.19259045  0.72059560     1.02470
O711        O  0.62305404  0.21010828  0.73080643    -0.78010
O712        O  0.64110756  0.24307720  0.76554899    -0.78200
C713        C  0.62524925  0.26055576  0.76434705     1.02420
O714        O  0.63038304  0.23545838  0.81164351    -0.85520
O715        O  0.59040598  0.20841164  0.82429053    -0.82580
C716        C  0.57741817  0.18878236  0.82473301     0.97960
O717        O  0.57019913  0.17828342  0.80461533    -0.82610
O718        O  0.61141327  0.15545552  0.78439475    -0.85220
C719        C  0.63294238  0.15280727  0.77508490     1.02430
O720        O  0.64068118  0.16891219  0.75968296    -0.78040
O721        O  0.65100275  0.20239854  0.79823190    -0.78180
C722        C  0.64823573  0.21987356  0.81397358     1.02390
Cr723      Cr  0.59646080  0.23073744  0.79607242     1.93740
Cr724      Cr  0.58616443  0.17953437  0.77017256     1.93210
Cr725      Cr  0.63661385  0.20602953  0.76441603     1.39100
O726        O  0.60590154  0.20558188  0.77670542    -1.23270
O727        O  0.48182859  0.11922698  0.97236151    -0.85520
O728        O  0.50011275  0.16733436  0.97817756    -0.82570
C729        C  0.51550821  0.18507313  0.98114081     0.97940
O730        O  0.53885614  0.18115104  0.97799432    -0.82600
O731        O  0.55317095  0.14598040  0.01406062    -0.85250
C732        C  0.55422567  0.12477682  0.02461991     1.02470
O733        O  0.55501651  0.10512875  0.01146390    -0.78010
O734        O  0.50417075  0.10401711  0.00331106    -0.78200
C735        C  0.48316106  0.10833450  0.99347226     1.02420
O736        O  0.51186220  0.11461154  0.92730821    -0.85520
O737        O  0.52685182  0.16298363  0.93160930    -0.82580
C738        C  0.54950546  0.16035677  0.92506396     0.97960
O739        O  0.56570689  0.15267372  0.94057432    -0.82610
O740        O  0.58523171  0.12052691  0.97620544    -0.85220
C741        C  0.58341155  0.09973299  0.96447674     1.02430
O742        O  0.56220824  0.09037782  0.96036239    -0.78040
O743        O  0.51246364  0.08397893  0.95444783    -0.78180
C744        C  0.51163012  0.09151062  0.93208071     1.02390
Cr745      Cr  0.50693241  0.14028576  0.95373037     1.93740
Cr746      Cr  0.55908350  0.14889198  0.97700546     1.93210
Cr747      Cr  0.53346358  0.09814110  0.98173806     1.39100
O748        O  0.53304328  0.12929553  0.97086833    -1.23270
O749        O  0.00222705  0.47997213  0.88448934    -0.85520
O750        O  0.99372848  0.42827218  0.88247464    -0.82570
C751        C  0.97712648  0.43352568  0.86677939     0.97940
O752        O  0.98355246  0.43360774  0.84384606    -0.82600
O753        O  0.01778566  0.44478372  0.80415358    -0.85250
C754        C  0.01636780  0.46813059  0.79959307     1.02470
O755        O  0.02086357  0.48369859  0.81689924    -0.78010
O756        O  0.03097671  0.50206617  0.86471903    -0.78200
C757        C  0.01151633  0.50095268  0.87842175     1.02420
O758        O  0.05172341  0.47042217  0.89893111    -0.85520
O759        O  0.04502859  0.42001654  0.89133172    -0.82580
C760        C  0.03670992  0.39926072  0.88369625     0.97960
O761        O  0.02283978  0.39851727  0.86425192    -0.82610
O762        O  0.05635173  0.41659854  0.82931894    -0.85220
C763        C  0.07207588  0.43246754  0.82099586     1.02430
O764        O  0.06592479  0.45520974  0.81829910    -0.78040
O765        O  0.07596390  0.47159489  0.86599819    -0.78180
C766        C  0.07317171  0.47221646  0.88944576     1.02390
Cr767      Cr  0.02349479  0.44975845  0.88718173     1.93740
Cr768      Cr  0.02044322  0.42499948  0.83639948     1.93210
Cr769      Cr  0.04712598  0.47636478  0.84240196     1.39100
O770        O  0.03037804  0.45068999  0.85509690    -1.23270
O771        O  0.25106370  0.35365974  0.75119885    -0.85520
O772        O  0.26260514  0.35392545  0.80177046    -0.82570
C773        C  0.27548137  0.37378849  0.80154670     0.97940
O774        O  0.26477666  0.39495481  0.80181306    -0.82600
O775        O  0.22813059  0.42981811  0.78931981    -0.85250
C776        C  0.23072249  0.43377311  0.76596632     1.02470
O777        O  0.22664979  0.41627607  0.75051167    -0.78010
O778        O  0.21829444  0.36881709  0.73160988    -0.78200
C779        C  0.23982410  0.35882265  0.73099796     1.02420
O780        O  0.20293811  0.33351401  0.76303448    -0.85520
O781        O  0.21237639  0.33876423  0.81248484    -0.82580
C782        C  0.21673174  0.34857725  0.83346697     0.97960
O783        O  0.22867080  0.36918272  0.83482185    -0.82610
O784        O  0.19141770  0.40045173  0.81744317    -0.85220
C785        C  0.17587125  0.40938710  0.80197715     1.02430
O786        O  0.18219251  0.41293024  0.77949572    -0.78040
O787        O  0.17565429  0.36397713  0.76507000    -0.78180
C788        C  0.18053097  0.34083696  0.76456899     1.02390
Cr789      Cr  0.23165242  0.34716451  0.78220990     1.93740
Cr790      Cr  0.22790078  0.39744361  0.80915196     1.93210
Cr791      Cr  0.20205432  0.38964002  0.75832473     1.39100
O792        O  0.22075827  0.37823942  0.78309840    -1.23270
O793        O  0.78341013  0.59718022  0.26839709    -0.85520
O794        O  0.77440961  0.55154629  0.24744314    -0.82570
C795        C  0.76980494  0.53452064  0.23180241     0.97940
O796        O  0.77149820  0.53904507  0.20845586    -0.82600
O797        O  0.73454816  0.57449551  0.19867275    -0.85250
C798        C  0.72374559  0.59554340  0.19995978     1.02470
O799        O  0.73655637  0.61547231  0.20054067    -0.78010
O800        O  0.74978522  0.61274462  0.25066510    -0.78200
C801        C  0.76193896  0.60714328  0.27021891     1.02420
O802        O  0.82500915  0.60388001  0.23447620    -0.85520
O803        O  0.81829988  0.55583785  0.21701460    -0.82580
C804        C  0.82322490  0.56012987  0.19429442     0.97960
O805        O  0.80696012  0.56966213  0.18006070    -0.82610
O806        O  0.76974595  0.60201564  0.16596392    -0.85220
C807        C  0.78195393  0.62246063  0.16796923     1.02430
O808        O  0.78681785  0.63128265  0.18930256    -0.78040
O809        O  0.79724847  0.63379369  0.23905379    -0.78180
C810        C  0.81966990  0.62630300  0.23951601     1.02390
Cr811      Cr  0.79888197  0.57791902  0.24008473     1.93740
Cr812      Cr  0.77108223  0.57237939  0.19002394     1.93210
Cr813      Cr  0.76824107  0.62118866  0.21955405     1.39100
O814        O  0.77933050  0.59039184  0.21659237    -1.23270
O815        O  0.97044866  0.46479051  0.13803621    -0.85520
O816        O  0.97892934  0.48660109  0.18393079    -0.82570
C817        C  0.98275507  0.50313690  0.20042824     0.97940
O818        O  0.97958564  0.52620839  0.19517509    -0.82600
O819        O  0.01536265  0.53741070  0.15841539    -0.85250
C820        C  0.02544186  0.53635705  0.13693845     1.02470
O821        O  0.01185123  0.53570079  0.11764329    -0.78010
O822        O  0.00203715  0.48485411  0.12084803    -0.78200
C823        C  0.99171978  0.46451835  0.12741398     1.02420
O824        O  0.92644048  0.49637400  0.13227589    -0.85520
O825        O  0.93356337  0.51430612  0.17965553    -0.82580
C826        C  0.92621979  0.53608066  0.17405372     0.97960
O827        O  0.94170391  0.55172285  0.16511511    -0.82610
O828        O  0.97761104  0.56814479  0.13197435    -0.85220
C829        C  0.96504245  0.56555728  0.11188026     1.02430
O830        O  0.96074567  0.54388195  0.10347627    -0.78040
O831        O  0.95318200  0.49336730  0.10148956    -0.78180
C832        C  0.93089597  0.49484361  0.10916269     1.02390
Cr833      Cr  0.95360340  0.49211363  0.15752534     1.93740
Cr834      Cr  0.97828391  0.54413716  0.16170673     1.93210
Cr835      Cr  0.98137480  0.51464423  0.11302203     1.39100
O836        O  0.97128027  0.51684183  0.14424689    -1.23270
O837        O  0.72128973  0.37340186  0.76289476    -0.85520
O838        O  0.72945506  0.41934046  0.74151524    -0.82570
C839        C  0.73168151  0.43686631  0.72590061     0.97940
O840        O  0.72928001  0.43239158  0.70258460    -0.82600
O841        O  0.76577113  0.39640550  0.69104755    -0.85250
C842        C  0.77631811  0.37517376  0.69171241     1.02470
O843        O  0.76324680  0.35537694  0.69206266    -0.78010
O844        O  0.75304819  0.35666716  0.74288696    -0.78200
C845        C  0.74235651  0.36242653  0.76322224     1.02420
O846        O  0.67739202  0.36764195  0.73181392    -0.85520
O847        O  0.68401809  0.41520658  0.71384771    -0.82580
C848        C  0.67709963  0.41042958  0.69175218     0.97960
O849        O  0.69243987  0.40128186  0.67621220    -0.82610
O850        O  0.72916523  0.36918925  0.65952256    -0.85220
C851        C  0.71688177  0.34879601  0.66186891     1.02430
O852        O  0.71239293  0.34016522  0.68336484    -0.78040
O853        O  0.70440168  0.33680499  0.73378351    -0.78180
C854        C  0.68228791  0.34497072  0.73606921     1.02390
Cr855      Cr  0.70434010  0.39307121  0.73574805     1.93740
Cr856      Cr  0.72892683  0.39875414  0.68405063     1.93210
Cr857      Cr  0.73264527  0.34939951  0.71275567     1.39100
O858        O  0.72207793  0.38048923  0.71094694    -1.23270
O859        O  0.53775804  0.50187571  0.63274978    -0.85520
O860        O  0.52392627  0.48254219  0.67919956    -0.82570
C861        C  0.51878290  0.46692478  0.69627962     0.97940
O862        O  0.52064354  0.44348752  0.69197153    -0.82600
O863        O  0.48459846  0.43364090  0.65608784    -0.85250
C864        C  0.47422492  0.43651444  0.63498603     1.02470
O865        O  0.48714696  0.43679658  0.61513733    -0.78010
O866        O  0.50407615  0.48568891  0.61565101    -0.78200
C867        C  0.51744099  0.50448033  0.62098026     1.02420
O868        O  0.57724650  0.46623992  0.62983762    -0.85520
O869        O  0.56606419  0.45067116  0.67793794    -0.82580
C870        C  0.57249934  0.42851137  0.67300953     0.97960
O871        O  0.55680940  0.41379429  0.66297213    -0.82610
O872        O  0.51874734  0.39918136  0.63066690    -0.85220
C873        C  0.53080514  0.40012517  0.61021945     1.02430
O874        O  0.53688590  0.42095519  0.60100124    -0.78040
O875        O  0.55184047  0.46899365  0.59755635    -0.78180
C876        C  0.57373195  0.46805017  0.60651683     1.02390
Cr877      Cr  0.54975829  0.47370425  0.65403075     1.93740
Cr878      Cr  0.52077945  0.42421605  0.65928390     1.93210
Cr879      Cr  0.52048922  0.45285619  0.60962371     1.39100
O880        O  0.53009470  0.45038480  0.64097428    -1.23270
O881        O  0.76614104  0.70255047  0.38353803    -0.85520
O882        O  0.74672131  0.71167540  0.43076731    -0.82570
C883        C  0.73096991  0.71515958  0.44809397     0.97940
O884        O  0.70765595  0.71296340  0.44337151    -0.82600
O885        O  0.69646920  0.74870564  0.40591700    -0.85250
C886        C  0.69669119  0.75826845  0.38413777     1.02470
O887        O  0.69504873  0.74409362  0.36531519    -0.78010
O888        O  0.74563726  0.73356863  0.36586528    -0.78200
C889        C  0.76604891  0.72315869  0.37171313     1.02420
O890        O  0.73488044  0.65855760  0.37976529    -0.85520
O891        O  0.71803788  0.66666957  0.42757687    -0.82580
C892        C  0.69586419  0.65972848  0.42305857     0.97960
O893        O  0.68007159  0.67546192  0.41485995    -0.82610
O894        O  0.66297316  0.71132088  0.38167101    -0.85220
C895        C  0.66445881  0.69817469  0.36179759     1.02430
O896        O  0.68560438  0.69265744  0.35298596    -0.78040
O897        O  0.73543132  0.68435641  0.34789942    -0.78180
C898        C  0.73618033  0.66236286  0.35650668     1.02390
Cr899      Cr  0.73973137  0.68619703  0.40450283     1.93740
Cr900      Cr  0.68843018  0.71185670  0.41042798     1.93210
Cr901      Cr  0.71535537  0.71311061  0.36029098     1.39100
O902        O  0.71467451  0.70379271  0.39187422    -1.23270
O903        O  0.63470258  0.51717645  0.51743308    -0.85520
O904        O  0.68106394  0.50805274  0.49709293    -0.82570
C905        C  0.69787259  0.50308382  0.48124476     0.97940
O906        O  0.69318876  0.50494260  0.45793383    -0.82600
O907        O  0.65782589  0.46796796  0.44784091    -0.85250
C908        C  0.63666083  0.45734606  0.44886048     1.02470
O909        O  0.61683583  0.47018906  0.44967460    -0.78010
O910        O  0.61889499  0.48360076  0.49968617    -0.78200
C911        C  0.62504442  0.49552095  0.51922982     1.02420
O912        O  0.62865763  0.55853544  0.48284731    -0.85520
O913        O  0.67670367  0.55165103  0.46631351    -0.82580
C914        C  0.67214509  0.55667818  0.44368832     0.97960
O915        O  0.66278142  0.54034394  0.42937859    -0.82610
O916        O  0.63079799  0.50277620  0.41479069    -0.85220
C917        C  0.61028121  0.51477877  0.41648904     1.02430
O918        O  0.60128951  0.51994847  0.43767314    -0.78040
O919        O  0.59817897  0.53133342  0.48699246    -0.78180
C920        C  0.60561959  0.55368968  0.48480854     1.02390
Cr921      Cr  0.65439956  0.53242340  0.48930983     1.93740
Cr922      Cr  0.66008582  0.50445217  0.43926232     1.93210
Cr923      Cr  0.61097906  0.50187185  0.46832886     1.39100
O924        O  0.64195820  0.51273856  0.46573693    -1.23270
O925        O  0.38637044  0.75380797  0.71397927    -0.85520
O926        O  0.43276180  0.73384031  0.72604485    -0.82570
C927        C  0.44936238  0.71772982  0.73090744     0.97940
O928        O  0.44430089  0.69457042  0.72902318    -0.82600
O929        O  0.40326142  0.68443002  0.76166006    -0.85250
C930        C  0.38010532  0.68485954  0.76736176     1.02470
O931        O  0.36448224  0.68106235  0.75016001    -0.78010
O932        O  0.36351515  0.73207908  0.74074804    -0.78200
C933        C  0.37160145  0.75291717  0.73267594     1.02420
O934        O  0.38626544  0.72375835  0.66837224    -0.85520
O935        O  0.43253928  0.70516239  0.68056366    -0.82580
C936        C  0.42885781  0.68248807  0.67435895     0.97960
O937        O  0.41982159  0.66701414  0.68997954    -0.82610
O938        O  0.38366043  0.65000447  0.72245276    -0.85220
C939        C  0.36501530  0.65122947  0.70772930     1.02430
O940        O  0.35967946  0.67194007  0.69773989    -0.78040
O941        O  0.35186276  0.72232047  0.69041590    -0.78180
C942        C  0.36268594  0.72473549  0.66968072     1.02390
Cr943      Cr  0.40848748  0.72740367  0.69849645     1.93740
Cr944      Cr  0.41186835  0.67577358  0.72532607     1.93210
Cr945      Cr  0.36197738  0.70179200  0.71950340     1.39100
O946        O  0.39435077  0.70212768  0.71465765    -1.23270
O947        O  0.51872126  0.62029980  0.52641503    -0.85520
O948        O  0.49731413  0.66633591  0.51905478    -0.82570
C949        C  0.48111105  0.68323916  0.51614215     0.97940
O950        O  0.45800572  0.67814098  0.51916732    -0.82600
O951        O  0.44650405  0.64225435  0.48282041    -0.85250
C952        C  0.44688775  0.62095457  0.47238176     1.02470
O953        O  0.44754073  0.60129985  0.48552184    -0.78010
O954        O  0.49852238  0.60354571  0.49476757    -0.78200
C955        C  0.51889726  0.60961186  0.50522269     1.02420
O956        O  0.48811280  0.61375294  0.57047699    -0.85520
O957        O  0.47011384  0.66158316  0.56478401    -0.82580
C958        C  0.44770265  0.65754586  0.57127229     0.97960
O959        O  0.43231057  0.64770073  0.55619574    -0.82610
O960        O  0.41567233  0.61521381  0.51977837    -0.85220
C961        C  0.41823120  0.59496966  0.53207395     1.02430
O962        O  0.43978572  0.58631717  0.53629808    -0.78040
O963        O  0.49039939  0.58315325  0.54319492    -0.78180
C964        C  0.49193881  0.59101006  0.56539892     1.02390
Cr965      Cr  0.49179798  0.63961062  0.54389550     1.93740
Cr966      Cr  0.43987149  0.64474299  0.51973943     1.93210
Cr967      Cr  0.46883297  0.59574489  0.51559297     1.39100
O968        O  0.46693317  0.62681776  0.52632818    -1.23270
O969        O  0.25781440  0.61872304  0.24458648    -0.85520
O970        O  0.24481607  0.62250107  0.29504519    -0.82570
C971        C  0.22902733  0.60515102  0.29271502     0.97940
O972        O  0.23633057  0.58257358  0.29458221    -0.82600
O973        O  0.26991565  0.54268068  0.28577188    -0.85250
C974        C  0.26929944  0.53834581  0.26236391     1.02470
O975        O  0.27567986  0.55514924  0.24704811    -0.78010
O976        O  0.28977740  0.60009093  0.22677323    -0.78200
C977        C  0.26902750  0.61149133  0.22503320     1.02420
O978        O  0.30684787  0.63480120  0.25727500    -0.85520
O979        O  0.29536155  0.63206066  0.30701888    -0.82580
C980        C  0.28781123  0.62396632  0.32791780     0.97960
O981        O  0.27355901  0.60483586  0.32902527    -0.82610
O982        O  0.30770070  0.56889125  0.31549762    -0.85220
C983        C  0.32383435  0.55899384  0.30119043     1.02430
O984        O  0.31851390  0.55491965  0.27852735    -0.78040
O985        O  0.33114023  0.60213927  0.26190777    -0.78180
C986        C  0.32839882  0.62543377  0.25900983     1.02390
Cr987      Cr  0.27654692  0.62492415  0.27610358     1.93740
Cr988      Cr  0.27240998  0.57568412  0.30454609     1.93210
Cr989      Cr  0.30249748  0.57902105  0.25521371     1.39100
O990        O  0.28379072  0.59305830  0.27857096    -1.23270
O991        O  0.50565465  0.48694847  0.37867153    -0.85520
O992        O  0.51455262  0.53824663  0.38011285    -0.82570
C993        C  0.52721920  0.53747397  0.36027355     0.97940
O994        O  0.51605984  0.53756824  0.33934537    -0.82600
O995        O  0.47793978  0.52564438  0.30523334    -0.85250
C996        C  0.47991822  0.50241981  0.30018668     1.02470
O997        O  0.47715309  0.48622677  0.31722196    -0.78010
O998        O  0.47290136  0.46626902  0.36453301    -0.78200
C999        C  0.49478098  0.46641518  0.37379850     1.02420
O1000       O  0.45852389  0.49511234  0.40144752    -0.85520
O1001       O  0.46472829  0.54556532  0.39704888    -0.82580
C1002       C  0.46814975  0.56700576  0.38775155     0.97960
O1003       O  0.47965431  0.56939869  0.36700607    -0.82610
O1004       O  0.44212060  0.55229194  0.33591474    -0.85220
C1005       C  0.42634995  0.53670705  0.32737501     1.02430
O1006       O  0.43219929  0.51393416  0.32453151    -0.78040
O1007       O  0.42924805  0.49780405  0.37318856    -0.78180
C1008       C  0.43566760  0.49636606  0.39587162     1.02390
Cr1009     Cr  0.48515695  0.51659828  0.38718974     1.93740
Cr1010     Cr  0.47880670  0.54452060  0.33800841     1.93210
Cr1011     Cr  0.45422768  0.49274316  0.34568937     1.39100
O1012       O  0.47280146  0.51785103  0.35672077    -1.23270
O1013       O  0.25222232  0.23485895  0.62989256    -0.85520
O1014       O  0.30227633  0.22283862  0.62769183    -0.82570
C1015       C  0.30099849  0.20995343  0.60791071     0.97940
O1016       O  0.30025736  0.22077254  0.58683758    -0.82600
O1017       O  0.28771113  0.25819612  0.55292141    -0.85250
C1018       C  0.26429052  0.25543220  0.54960646     1.02470
O1019       O  0.24921504  0.25971772  0.56731119    -0.78010
O1020       O  0.23168693  0.26744704  0.61518342    -0.78200
C1021       C  0.23194863  0.24648730  0.62633016     1.02420
O1022       O  0.26453197  0.28249258  0.64998636    -0.85520
O1023       O  0.31383924  0.27359432  0.64206765    -0.82580
C1024       C  0.33438619  0.26671058  0.63286950     0.97960
O1025       O  0.33480293  0.25562192  0.61183695    -0.82610
O1026       O  0.31718594  0.29371802  0.58164911    -0.85220
C1027       C  0.30180496  0.30973063  0.57343593     1.02430
O1028       O  0.27892987  0.30420967  0.57061245    -0.78040
O1029       O  0.26465343  0.31028837  0.61989108    -0.78180
C1030       C  0.26437590  0.30503044  0.64295745     1.02390
Cr1031     Cr  0.28327144  0.25411915  0.63522868     1.93740
Cr1032     Cr  0.30833384  0.25755660  0.58446008     1.93210
Cr1033     Cr  0.25783729  0.28402675  0.59390496     1.39100
O1034       O  0.28292878  0.26509082  0.60437534    -1.23270
O1035       O  0.38337864  0.48687519  0.50364741    -0.85520
O1036       O  0.38178232  0.49759542  0.55407108    -0.82570
C1037       C  0.36239889  0.51115451  0.55367284     0.97940
O1038       O  0.34085308  0.50121728  0.55316467    -0.82600
O1039       O  0.30494271  0.46589892  0.53981474    -0.85250
C1040       C  0.30150791  0.46979265  0.51659172     1.02470
O1041       O  0.31913515  0.46587756  0.50129458    -0.78010
O1042       O  0.36631212  0.45589639  0.48262151    -0.78200
C1043       C  0.37807739  0.47652495  0.48304218     1.02420
O1044       O  0.40093052  0.43760989  0.51488764    -0.85520
O1045       O  0.39456435  0.44645377  0.56435683    -0.82580
C1046       C  0.38547376  0.45271208  0.58512905     0.97960
O1047       O  0.36482957  0.46451806  0.58606029    -0.82610
O1048       O  0.33270675  0.42796660  0.56734412    -0.85220
C1049       C  0.32382239  0.41295366  0.55124169     1.02430
O1050       O  0.32036881  0.42027299  0.52904233    -0.78040
O1051       O  0.36881351  0.41193254  0.51378616    -0.78180
C1052       C  0.39217992  0.41565567  0.51356618     1.02390
Cr1053     Cr  0.38789525  0.46655509  0.53424958     1.93740
Cr1054     Cr  0.33698558  0.46444030  0.55993717     1.93210
Cr1055     Cr  0.34447970  0.43978559  0.50845794     1.39100
O1056       O  0.35639288  0.45705306  0.53406180    -1.23270
O1057       O  0.63225897  0.24272022  0.24509012    -0.85520
O1058       O  0.63452097  0.29352474  0.23571848    -0.82570
C1059       C  0.61489690  0.29331669  0.22257755     0.97940
O1060       O  0.59367882  0.29409127  0.23314292    -0.82600
O1061       O  0.55776175  0.28333830  0.26972782    -0.85250
C1062       C  0.55235149  0.26024208  0.26680201     1.02470
O1063       O  0.56899719  0.24382008  0.27023467    -0.78010
O1064       O  0.61555540  0.22246994  0.27677367    -0.78200
C1065       C  0.62661149  0.22234945  0.25573335     1.02420
O1066       O  0.65319143  0.25087017  0.29341260    -0.85520
O1067       O  0.64978397  0.30093946  0.28648570    -0.82580
C1068       C  0.64154913  0.32259654  0.28224623     0.97960
O1069       O  0.62129745  0.32545754  0.26996198    -0.82610
O1070       O  0.58869978  0.30931755  0.30638510    -0.85220
C1071       C  0.57924031  0.29417455  0.32196160     1.02430
O1072       O  0.57505243  0.27157254  0.31598534    -0.78040
O1073       O  0.62267419  0.25283458  0.32080778    -0.78180
C1074       C  0.64553010  0.24972702  0.31570237     1.02390
Cr1075     Cr  0.64021398  0.27222058  0.26581610     1.93740
Cr1076     Cr  0.59142282  0.30131863  0.27004142     1.93210
Cr1077     Cr  0.59640127  0.24941083  0.29460597     1.39100
O1078       O  0.60919342  0.27418797  0.27679665    -1.23270
O1079       O  0.49794737  0.36475187  0.50080067    -0.85520
O1080       O  0.54815488  0.36613857  0.51386687    -0.82570
C1081       C  0.54911218  0.34576866  0.52583553     0.97940
O1082       O  0.55086918  0.32508664  0.51430130    -0.82600
O1083       O  0.54040139  0.29142618  0.47617435    -0.85250
C1084       C  0.51728498  0.28633660  0.47866523     1.02470
O1085       O  0.50092163  0.30306703  0.47494985    -0.78010
O1086       O  0.47997746  0.34991191  0.46702103    -0.78200
C1087       C  0.47828716  0.35961916  0.48859037     1.02420
O1088       O  0.51043120  0.38672473  0.45375032    -0.85520
O1089       O  0.55977701  0.38332421  0.46456560    -0.82580
C1090       C  0.58104462  0.37401970  0.46862071     0.97960
O1091       O  0.58306660  0.35328253  0.47998937    -0.82610
O1092       O  0.56769673  0.32290409  0.44090125    -0.85220
C1093       C  0.55262903  0.31414635  0.42476862     1.02430
O1094       O  0.53056885  0.30875683  0.43131066    -0.78040
O1095       O  0.51424565  0.35714306  0.42566509    -0.78180
C1096       C  0.51287658  0.38009729  0.43122549     1.02390
Cr1097     Cr  0.52930664  0.37308251  0.48260135     1.93740
Cr1098     Cr  0.55874279  0.32427012  0.47748095     1.93210
Cr1099     Cr  0.50797090  0.33057379  0.45115678     1.39100
O1100       O  0.53186924  0.34249710  0.47069891    -1.23270
O1101       O  0.89403138  0.99716368  0.50277821    -0.85520
O1102       O  0.87835289  0.96481570  0.46773347    -0.82570
C1103       C  0.86516357  0.95469507  0.45109858     0.97940
O1104       O  0.85252466  0.96799822  0.43573503    -0.82600
O1105       O  0.81325773  0.99012459  0.46291116    -0.85250
C1106       C  0.80342377  0.00296158  0.48027951     1.02470
O1107       O  0.81483791  0.02174749  0.48925487    -0.78010
O1108       O  0.85546603  0.00359757  0.51562476    -0.78200
C1109       C  0.87715924  0.99502972  0.51936047     1.02420
O1110       O  0.90602868  0.03287886  0.46387387    -0.85520
O1111       O  0.89536997  0.99675609  0.42828149    -0.82580
C1112       C  0.88560919  0.01090876  0.41207354     0.97960
O1113       O  0.86355598  0.01873675  0.41515254    -0.82610
O1114       O  0.82359723  0.03843001  0.44052864    -0.85220
C1115       C  0.83239346  0.05875630  0.44938774     1.02430
O1116       O  0.84736278  0.05873863  0.46752162    -0.78040
O1117       O  0.88553833  0.04434760  0.49746940    -0.78180
C1118       C  0.90394090  0.04695663  0.48270891     1.02390
Cr1119     Cr  0.89116796  0.99885361  0.46553058     1.93740
Cr1120     Cr  0.83978161  0.00410829  0.44034121     1.93210
Cr1121     Cr  0.85127218  0.03057506  0.49053448     1.39100
O1122       O  0.86043423  0.01087098  0.46553920    -1.23270
O1123       O  0.75135219  0.23122276  0.36515159    -0.85520
O1124       O  0.80172282  0.24353624  0.36451578    -0.82570
C1125       C  0.80267281  0.25718722  0.38384313     0.97940
O1126       O  0.80264624  0.24737680  0.40539757    -0.82600
O1127       O  0.79066240  0.21211057  0.44196822    -0.85250
C1128       C  0.76733314  0.21479308  0.44608631     1.02470
O1129       O  0.75171569  0.21001646  0.42900501    -0.78010
O1130       O  0.73208678  0.19916726  0.38242071    -0.78200
C1131       C  0.73132382  0.21987498  0.37081990     1.02420
O1132       O  0.76341676  0.18209617  0.34739009    -0.85520
O1133       O  0.81287718  0.19235323  0.35176338    -0.82580
C1134       C  0.83392547  0.19807512  0.36070794     0.97960
O1135       O  0.83525900  0.21070436  0.38084516    -0.82610
O1136       O  0.81858557  0.17476418  0.41396274    -0.85220
C1137       C  0.80341437  0.15901173  0.42314669     1.02430
O1138       O  0.78091809  0.16521372  0.42713662    -0.78040
O1139       O  0.76469196  0.15640261  0.37937785    -0.78180
C1140       C  0.76313598  0.16009240  0.35614234     1.02390
Cr1141     Cr  0.78247997  0.21177201  0.35948449     1.93740
Cr1142     Cr  0.80999556  0.21076265  0.40943141     1.93210
Cr1143     Cr  0.75908442  0.18412185  0.40362999     1.39100
O1144       O  0.78372137  0.20238901  0.39095118    -1.23270
O1145       O  0.27091981  0.75884222  0.59526001    -0.85520
O1146       O  0.23996550  0.77575068  0.55789439    -0.82570
C1147       C  0.23069711  0.75735359  0.54591667     0.97940
O1148       O  0.21308139  0.74421697  0.55501393    -0.82600
O1149       O  0.18963023  0.71757110  0.59347708    -0.85250
C1150       C  0.20684967  0.70308942  0.60161650     1.02470
O1151       O  0.22670256  0.71230673  0.61037862    -0.78010
O1152       O  0.26057590  0.74434974  0.63211092    -0.78200
C1153       C  0.27675589  0.74772403  0.61521365     1.02420
O1154       O  0.24852106  0.79422861  0.62982199    -0.85520
O1155       O  0.21725677  0.80963109  0.59379519    -0.82580
C1156       C  0.19891246  0.81022976  0.57916635     0.97960
O1157       O  0.18988715  0.79012593  0.57021537    -0.82610
O1158       O  0.16961185  0.76602871  0.61239958    -0.85220
C1159       C  0.17024850  0.75427973  0.63297482     1.02430
O1160       O  0.18662429  0.73743718  0.63564051    -0.78040
O1161       O  0.22007102  0.77312716  0.65107480    -0.78180
C1162       C  0.23472962  0.79159584  0.64901182     1.02390
Cr1163     Cr  0.24238758  0.78288229  0.59457968     1.93740
Cr1164     Cr  0.19235358  0.75481604  0.58407075     1.93210
Cr1165     Cr  0.22327144  0.74290790  0.63035570     1.39100
O1166       O  0.21958134  0.76026530  0.60269969    -1.23270
O1167       O  0.13703570  0.96062980  0.48253750    -0.85520
O1168       O  0.18462908  0.96611389  0.50126613    -0.82570
C1169       C  0.20236746  0.96901508  0.51650974     0.97940
O1170       O  0.19862059  0.96515533  0.53977949    -0.82600
O1171       O  0.16358438  0.00114783  0.55442189    -0.85250
C1172       C  0.14244150  0.01173143  0.55567422     1.02470
O1173       O  0.12271935  0.99860700  0.55623605    -0.78010
O1174       O  0.12182580  0.99135498  0.50528200    -0.78200
C1175       C  0.12577007  0.98158810  0.48416051     1.02420
O1176       O  0.13201205  0.91495543  0.51157495    -0.85520
O1177       O  0.18016426  0.91883199  0.52752331    -0.82580
C1178       C  0.17678463  0.91193062  0.54998726     0.97960
O1179       O  0.16925587  0.92752367  0.56617349    -0.82610
O1180       O  0.13749777  0.96323548  0.58578614    -0.85220
C1181       C  0.11663846  0.95160974  0.58377267     1.02430
O1182       O  0.10766535  0.94729169  0.56244809    -0.78040
O1183       O  0.10171061  0.94254499  0.51204348    -0.78180
C1184       C  0.10934732  0.92043178  0.50847295     1.02390
Cr1185     Cr  0.15780535  0.94143911  0.50757657     1.93740
Cr1186     Cr  0.16612731  0.96404865  0.55989436     1.93210
Cr1187     Cr  0.11566533  0.96923312  0.53410582     1.39100
O1188       O  0.14669169  0.95828416  0.53373861    -1.23270
O1189       O  0.73372495  0.12382893  0.25530551    -0.85520
O1190       O  0.76580069  0.10273468  0.22284095    -0.82570
C1191       C  0.77606796  0.09446117  0.20348284     0.97940
O1192       O  0.76270652  0.08294828  0.18730133    -0.82600
O1193       O  0.73801980  0.04365632  0.21488411    -0.85250
C1194       C  0.72352397  0.03441505  0.23143063     1.02470
O1195       O  0.70479703  0.04688882  0.23910726    -0.78010
O1196       O  0.72371373  0.08589908  0.26733582    -0.78200
C1197       C  0.73423931  0.10664105  0.27156021     1.02420
O1198       O  0.70251789  0.13901490  0.21452793    -0.85520
O1199       O  0.73854682  0.12500009  0.18091649    -0.82580
C1200       C  0.72279514  0.11787716  0.16473610     0.97960
O1201       O  0.71302707  0.09635820  0.16688380    -0.82610
O1202       O  0.69092963  0.05612246  0.19062602    -0.85220
C1203       C  0.67069642  0.06580159  0.19873782     1.02430
O1204       O  0.67078468  0.08141368  0.21629579    -0.78040
O1205       O  0.68596770  0.11892308  0.24633540    -0.78180
C1206       C  0.68570173  0.13713638  0.23101804     1.02390
Cr1207     Cr  0.73432561  0.12071784  0.21821514     1.93740
Cr1208     Cr  0.72598474  0.07096560  0.19161429     1.93210
Cr1209     Cr  0.69789642  0.08368872  0.24062325     1.39100
O1210       O  0.71925880  0.09160405  0.21680098    -1.23270
O1211       O  0.49817237  0.99189417  0.11204571    -0.85520
O1212       O  0.49006757  0.04399789  0.11229421    -0.82570
C1213       C  0.47376856  0.03841045  0.12812665     0.97940
O1214       O  0.48075205  0.03796488  0.15084980    -0.82600
O1215       O  0.51515550  0.02579877  0.18994320    -0.85250
C1216       C  0.51548711  0.00219228  0.19368447     1.02470
O1217       O  0.52086692  0.98749201  0.17595689    -0.78010
O1218       O  0.52963124  0.97084062  0.12825485    -0.78200
C1219       C  0.50870460  0.97126618  0.11697054     1.02420
O1220       O  0.54703523  0.00107204  0.09468490    -0.85520
O1221       O  0.54073903  0.05124742  0.10171996    -0.82580
C1222       C  0.53490305  0.07224320  0.11084193     0.97960
O1223       O  0.52085644  0.07342914  0.13027782    -0.82610
O1224       O  0.55338497  0.05568868  0.16554869    -0.85220
C1225       C  0.56965167  0.04023215  0.17335757     1.02430
O1226       O  0.56482381  0.01708951  0.17455092    -0.78040
O1227       O  0.57345794  0.00344733  0.12560760    -0.78180
C1228       C  0.56922316  0.00218663  0.10241125     1.02390
Cr1229     Cr  0.51930086  0.02198214  0.10718213     1.93740
Cr1230     Cr  0.51771222  0.04669559  0.15809103     1.93210
Cr1231     Cr  0.54592577  0.99644862  0.15026296     1.39100
O1232       O  0.52776001  0.02158852  0.13886319    -1.23270
O1233       O  0.23784352  0.72120255  0.86104059    -0.85520
O1234       O  0.27181838  0.75502848  0.87895397    -0.82570
C1235       C  0.29085838  0.76490106  0.88883433     0.97940
O1236       O  0.30847458  0.75112012  0.89754900    -0.82600
O1237       O  0.28758620  0.72615049  0.93819034    -0.85250
C1238       C  0.26955145  0.71446393  0.94831451     1.02470
O1239       O  0.25896127  0.69617554  0.93753272    -0.78010
O1240       O  0.22857802  0.71311407  0.89996952    -0.78200
C1241       C  0.22260663  0.72211169  0.87904528     1.02420
O1242       O  0.27778692  0.69005118  0.84463517    -0.85520
O1243       O  0.31132687  0.72849594  0.85589644    -0.82580
C1244       C  0.32773664  0.71193783  0.85907484     0.97960
O1245       O  0.32883351  0.70147251  0.88022717    -0.82610
O1246       O  0.30975865  0.67908737  0.92298968    -0.85220
C1247       C  0.29872505  0.65890159  0.91672132     1.02430
O1248       O  0.27877845  0.65912929  0.90428518    -0.78040
O1249       O  0.24761477  0.67374555  0.86752230    -0.78180
C1250       C  0.26146690  0.67320426  0.84820221     1.02390
Cr1251     Cr  0.27503802  0.72263201  0.86209129     1.93740
Cr1252     Cr  0.30683863  0.71409942  0.90853141     1.93210
Cr1253     Cr  0.25532406  0.68717499  0.90169150     1.39100
O1254       O  0.27898653  0.70791614  0.89121306    -1.23270
O1255       O  0.38066434  0.48325910  0.99171380    -0.85520
O1256       O  0.38107853  0.47283845  0.94148543    -0.82570
C1257       C  0.36205809  0.45882604  0.94333762     0.97940
O1258       O  0.34035958  0.46840706  0.94233253    -0.82600
O1259       O  0.30299258  0.50360371  0.95329128    -0.85250
C1260       C  0.29862471  0.50020993  0.97647844     1.02470
O1261       O  0.31601050  0.50345731  0.99206481    -0.78010
O1262       O  0.36213292  0.51347044  0.01252134    -0.78200
C1263       C  0.37440939  0.49314347  0.01221117     1.02420
O1264       O  0.39798677  0.53308935  0.98201536    -0.85520
O1265       O  0.39354500  0.52457310  0.93223006    -0.82580
C1266       C  0.38521737  0.51871040  0.91102085     0.97960
O1267       O  0.36526708  0.50564217  0.90929810    -0.82610
O1268       O  0.33175135  0.54143775  0.92653190    -0.85220
C1269       C  0.32243695  0.55674100  0.94213880     1.02430
O1270       O  0.31811351  0.54977630  0.96440652    -0.78040
O1271       O  0.36519646  0.55791279  0.98243227    -0.78180
C1272       C  0.38844988  0.55463414  0.98440595     1.02390
Cr1273     Cr  0.38612489  0.50399908  0.96175019     1.93740
Cr1274     Cr  0.33616087  0.50507885  0.93443373     1.93210
Cr1275     Cr  0.34122142  0.52984721  0.98607596     1.39100
O1276       O  0.35447643  0.51304961  0.96086011    -1.23270
O1277       O  0.74646630  0.24259257  0.62676569    -0.85520
O1278       O  0.69501219  0.25050992  0.62762617    -0.82570
C1279       C  0.69554716  0.26327131  0.60781939     0.97940
O1280       O  0.69600258  0.25213355  0.58686350    -0.82600
O1281       O  0.70950241  0.21486272  0.55263962    -0.85250
C1282       C  0.73277618  0.21767806  0.54823531     1.02470
O1283       O  0.74860044  0.21444099  0.56548555    -0.78010
O1284       O  0.76794599  0.21027792  0.61292006    -0.78200
C1285       C  0.76727859  0.23210961  0.62239340     1.02420
O1286       O  0.73889627  0.19510291  0.64889316    -0.85520
O1287       O  0.68830210  0.20024483  0.64427112    -0.82580
C1288       C  0.66691189  0.20365523  0.63491257     0.97960
O1289       O  0.66472670  0.21465325  0.61384298    -0.82610
O1290       O  0.68308418  0.17772274  0.58244372    -0.85220
C1291       C  0.69917635  0.16194892  0.57488204     1.02430
O1292       O  0.72168647  0.16867116  0.57173416    -0.78040
O1293       O  0.73691769  0.16579076  0.62060544    -0.78180
C1294       C  0.73798888  0.17219862  0.64329907     1.02390
Cr1295     Cr  0.71706138  0.22138120  0.63472398     1.93740
Cr1296     Cr  0.69000077  0.21465869  0.58507946     1.93210
Cr1297     Cr  0.74206089  0.19110571  0.59345886     1.39100
O1298       O  0.71645624  0.20914061  0.60417019    -1.23270
O1299       O  0.62033200  0.98769799  0.49569543    -0.85520
O1300       O  0.61732608  0.97452403  0.54546103    -0.82570
C1301       C  0.63647426  0.96064381  0.54577385     0.97940
O1302       O  0.65808381  0.97019453  0.54818737    -0.82600
O1303       O  0.69577421  0.00554556  0.53890864    -0.85250
C1304       C  0.70127088  0.00328723  0.51578306     1.02470
O1305       O  0.68493892  0.00807033  0.49935948    -0.78010
O1306       O  0.63906622  0.01936419  0.47729157    -0.78200
C1307       C  0.62690197  0.99888324  0.47589960     1.02420
O1308       O  0.60285111  0.03664391  0.50779082    -0.85520
O1309       O  0.60445766  0.02547570  0.55707064    -0.82580
C1310       C  0.61217434  0.01959078  0.57848973     0.97960
O1311       O  0.63201409  0.00654238  0.58069524    -0.82610
O1312       O  0.66616945  0.04264386  0.56615108    -0.85220
C1313       C  0.67662345  0.05840879  0.55186778     1.02430
O1314       O  0.68185189  0.05266191  0.52947638    -0.78040
O1315       O  0.63509194  0.06181600  0.51128461    -0.78180
C1316       C  0.61181136  0.05846552  0.50952808     1.02390
Cr1317     Cr  0.61350028  0.00659114  0.52675207     1.93740
Cr1318     Cr  0.66203111  0.00667710  0.55670585     1.93210
Cr1319     Cr  0.65924737  0.03402538  0.50593125     1.39100
O1320       O  0.64506628  0.01554764  0.52962737    -1.23270
O1321       O  0.24932377  0.73414123  0.12924850    -0.85520
O1322       O  0.19930665  0.74630622  0.13039275    -0.82570
C1323       C  0.19879500  0.76011044  0.11119258     0.97940
O1324       O  0.19811943  0.75033148  0.08953157    -0.82600
O1325       O  0.20913974  0.71443830  0.05283392    -0.85250
C1326       C  0.23235709  0.71762519  0.04847071     1.02470
O1327       O  0.24816566  0.71350067  0.06548091    -0.78010
O1328       O  0.26866154  0.70269947  0.11118468    -0.78200
C1329       C  0.26938320  0.72357832  0.12238119     1.02420
O1330       O  0.23764733  0.68510012  0.14726351    -0.85520
O1331       O  0.18789619  0.69502887  0.14270156    -0.82580
C1332       C  0.16699802  0.70293679  0.13521463     0.97960
O1333       O  0.16543657  0.71431044  0.11443711    -0.82610
O1334       O  0.18162274  0.67706925  0.08180435    -0.85220
C1335       C  0.19698719  0.66163119  0.07234560     1.02430
O1336       O  0.21914046  0.66855334  0.06766446    -0.78040
O1337       O  0.23675010  0.65950971  0.11513634    -0.78180
C1338       C  0.23893043  0.66324305  0.13834011     1.02390
Cr1339     Cr  0.21837347  0.71453822  0.13520545     1.93740
Cr1340     Cr  0.19029533  0.71348057  0.08565074     1.93210
Cr1341     Cr  0.24141044  0.68737709  0.09074758     1.39100
O1342       O  0.21684974  0.70529367  0.10380792    -1.23270
O1343       O  0.11825262  0.48691829  0.99647352    -0.85520
O1344       O  0.11575403  0.47218365  0.04613744    -0.82570
C1345       C  0.13535290  0.45906514  0.04806764     0.97940
O1346       O  0.15666930  0.46936314  0.04973692    -0.82600
O1347       O  0.19315070  0.50499832  0.03852273    -0.85250
C1348       C  0.19745227  0.50295622  0.01508988     1.02470
O1349       O  0.18048839  0.50832503  0.99952401    -0.78010
O1350       O  0.13455889  0.52059355  0.97955272    -0.78200
C1351       C  0.12432099  0.49931853  0.97720436     1.02420
O1352       O  0.09922260  0.53524410  0.01059952    -0.85520
O1353       O  0.10142532  0.52216981  0.05938116    -0.82580
C1354       C  0.11027580  0.51712130  0.08061073     0.97960
O1355       O  0.13086567  0.50526863  0.08245569    -0.82610
O1356       O  0.16401779  0.54210019  0.06734312    -0.85220
C1357       C  0.17432980  0.55765360  0.05274803     1.02430
O1358       O  0.17894297  0.55143520  0.03046327    -0.78040
O1359       O  0.13080993  0.56123424  0.01486209    -0.78180
C1360       C  0.10757020  0.55732399  0.01293729     1.02390
Cr1361     Cr  0.11090385  0.50465220  0.02836487     1.93740
Cr1362     Cr  0.16010587  0.50595311  0.05774391     1.93210
Cr1363     Cr  0.15524647  0.53398662  0.00774840     1.39100
O1364       O  0.14215606  0.51459028  0.03123990    -1.23270
O1365       O  0.24720474  0.61719444  0.74395188    -0.85520
O1366       O  0.25666186  0.61805973  0.69228602    -0.82570
C1367       C  0.27216355  0.60075154  0.69565489     0.97940
O1368       O  0.26429315  0.57826904  0.69495394    -0.82600
O1369       O  0.22923754  0.54014961  0.70610482    -0.85250
C1370       C  0.23107280  0.53563795  0.72937110     1.02470
O1371       O  0.22627370  0.55265841  0.74512934    -0.78010
O1372       O  0.21608017  0.59967216  0.76438118    -0.78200
C1373       C  0.23659266  0.61171274  0.76437725     1.02420
O1374       O  0.19848517  0.63453216  0.73403282    -0.85520
O1375       O  0.20601354  0.62929419  0.68351677    -0.82580
C1376       C  0.21246102  0.62055362  0.66251164     0.97960
O1377       O  0.22597578  0.60092368  0.66140668    -0.82610
O1378       O  0.19133030  0.56718788  0.67815626    -0.85220
C1379       C  0.17534208  0.55947678  0.69392381     1.02430
O1380       O  0.18200383  0.55473522  0.71605664    -0.78040
O1381       O  0.17248461  0.60292798  0.73241703    -0.78180
C1382       C  0.17643191  0.62625221  0.73387451     1.02390
Cr1383     Cr  0.22671207  0.62269820  0.71344564     1.93740
Cr1384     Cr  0.22738435  0.57256386  0.68680573     1.93210
Cr1385     Cr  0.20045439  0.57835079  0.73782084     1.39100
O1386       O  0.21823499  0.59100645  0.71288156    -1.23270
O1387       O  0.00196849  0.49056939  0.61395988    -0.85520
O1388       O  0.99159441  0.54235903  0.61384685    -0.82570
C1389       C  0.97573862  0.53739743  0.63045734     0.97940
O1390       O  0.98305977  0.53777033  0.65303235    -0.82600
O1391       O  0.01790857  0.52814968  0.69197730    -0.85250
C1392       C  0.01818169  0.50479279  0.69674557     1.02470
O1393       O  0.02449607  0.48941265  0.67986101    -0.78010
O1394       O  0.03291690  0.47054409  0.63246270    -0.78200
C1395       C  0.01234986  0.47022642  0.62050458     1.02420
O1396       O  0.05022534  0.50149621  0.59645147    -0.85520
O1397       O  0.04229944  0.55197518  0.60304644    -0.82580
C1398       C  0.03569815  0.57284258  0.61209264     0.97960
O1399       O  0.02123093  0.57350816  0.63113836    -0.82610
O1400       O  0.05473340  0.55802051  0.66571237    -0.85220
C1401       C  0.07176058  0.54342641  0.67324176     1.02430
O1402       O  0.06806086  0.52015507  0.67570181    -0.78040
O1403       O  0.07637633  0.50342495  0.62768915    -0.78180
C1404       C  0.07231558  0.50160069  0.60447641     1.02390
Cr1405     Cr  0.02189806  0.52162264  0.60898125     1.93740
Cr1406     Cr  0.01956935  0.54759495  0.65937859     1.93210
Cr1407     Cr  0.04903445  0.49765801  0.65304240     1.39100
O1408       O  0.03022395  0.52205021  0.64077473    -1.23270
O1409       O  0.02546855  0.96801981  0.34905801    -0.85520
O1410       O  0.04453623  0.99767815  0.31107301    -0.82570
C1411       C  0.02652671  0.00639006  0.29831297     0.97940
O1412       O  0.01187399  0.02263986  0.30764442    -0.82600
O1413       O  0.98403857  0.04484576  0.34664711    -0.85250
C1414       C  0.97103210  0.02707893  0.35651000     1.02470
O1415       O  0.98178960  0.00927899  0.36753508    -0.78010
O1416       O  0.01627207  0.97832807  0.38758421    -0.78200
C1417       C  0.01544801  0.96283801  0.36979421     1.02420
O1418       O  0.06257395  0.98934363  0.38302609    -0.85520
O1419       O  0.07766775  0.02028638  0.34660488    -0.82580
C1420       C  0.07796925  0.03931591  0.33277167     0.97960
O1421       O  0.05765978  0.04809436  0.32368559    -0.82610
O1422       O  0.03271030  0.06859031  0.36428264    -0.85220
C1423       C  0.02205482  0.06781932  0.38537309     1.02430
O1424       O  0.00550176  0.05140239  0.38845053    -0.78040
O1425       O  0.04501321  0.02052541  0.40328575    -0.78180
C1426       C  0.06248922  0.00466703  0.40123597     1.02390
Cr1427     Cr  0.05084992  0.99537043  0.34781946     1.93740
Cr1428     Cr  0.02180285  0.04446345  0.33680491     1.93210
Cr1429     Cr  0.01321837  0.01520163  0.38495910     1.39100
O1430       O  0.02857876  0.01822368  0.35607716    -1.23270
O1431       O  0.22203469  0.10495348  0.23283597    -0.85520
O1432       O  0.22789873  0.05692750  0.24998482    -0.82570
C1433       C  0.23290781  0.03926545  0.26486841     0.97940
O1434       O  0.23280056  0.04321921  0.28837777    -0.82600
O1435       O  0.26956723  0.07977650  0.30018292    -0.85250
C1436       C  0.27956255  0.10143577  0.30095928     1.02470
O1437       O  0.26562120  0.12023408  0.30368135    -0.78010
O1438       O  0.25473920  0.12031833  0.25277024    -0.78200
C1439       C  0.24349592  0.11526799  0.23254835     1.02420
O1440       O  0.17903793  0.11076803  0.26567796    -0.85520
O1441       O  0.18400684  0.06190053  0.28004891    -0.82580
C1442       C  0.17915348  0.06443275  0.30303441     0.97960
O1443       O  0.19634215  0.07077592  0.31819907    -0.82610
O1444       O  0.23250935  0.10342693  0.33496452    -0.85220
C1445       C  0.21969957  0.12360069  0.33415294     1.02430
O1446       O  0.21488575  0.13370589  0.31339673    -0.78040
O1447       O  0.20708495  0.14042100  0.26350190    -0.78180
C1448       C  0.18448412  0.13370796  0.26415704     1.02390
Cr1449     Cr  0.20473149  0.08443077  0.25890616     1.93740
Cr1450     Cr  0.23254885  0.07541175  0.30878521     1.93210
Cr1451     Cr  0.23492806  0.12637398  0.28340722     1.39100
O1452       O  0.22412104  0.09511380  0.28356012    -1.23270
O1453       O  0.63123866  0.72679655  0.25372060    -0.85520
O1454       O  0.63041615  0.67608639  0.26314603    -0.82570
C1455       C  0.61075045  0.67729897  0.27620140     0.97940
O1456       O  0.58958595  0.67776517  0.26550001    -0.82600
O1457       O  0.55467064  0.69096677  0.22878071    -0.85250
C1458       C  0.55063168  0.71434406  0.23140515     1.02470
O1459       O  0.56841190  0.72974864  0.22857017    -0.78010
O1460       O  0.61637628  0.74818812  0.22197369    -0.78200
C1461       C  0.62716278  0.74750644  0.24312272     1.02420
O1462       O  0.65156993  0.71748606  0.20531989    -0.85520
O1463       O  0.64541814  0.66761523  0.21240772    -0.82580
C1464       C  0.63603700  0.64650408  0.21710778     0.97960
O1465       O  0.61521011  0.64495332  0.22869718    -0.82610
O1466       O  0.58346952  0.66348307  0.19192467    -0.85220
C1467       C  0.57457617  0.67945722  0.17679854     1.02430
O1468       O  0.57242297  0.70221156  0.18308291    -0.78040
O1469       O  0.62132286  0.71742827  0.17773387    -0.78180
C1470       C  0.64438415  0.71834923  0.18284155     1.02390
Cr1471     Cr  0.63743944  0.69694828  0.23296296     1.93740
Cr1472     Cr  0.58694196  0.67091729  0.22847547     1.93210
Cr1473     Cr  0.59540949  0.72261240  0.20418926     1.39100
O1474       O  0.60644487  0.69691603  0.22188210    -1.23270
O1475       O  0.49014386  0.60543366  0.00539910    -0.85520
O1476       O  0.54024549  0.60082016  0.99335602    -0.82570
C1477       C  0.53890903  0.61867531  0.97800189     0.97940
O1478       O  0.54166027  0.64095430  0.98597586    -0.82600
O1479       O  0.53362934  0.68013141  0.02037330    -0.85250
C1480       C  0.51049458  0.68552724  0.01820895     1.02470
O1481       O  0.49399324  0.66966410  0.02426849    -0.78010
O1482       O  0.47160832  0.62469279  0.03660021    -0.78200
C1483       C  0.47039715  0.61281505  0.01605619     1.02420
O1484       O  0.50061769  0.58830659  0.05448290    -0.85520
O1485       O  0.55084570  0.59050155  0.04448649    -0.82580
C1486       C  0.57197423  0.59617963  0.03556705     0.97960
O1487       O  0.57450212  0.61622888  0.02290407    -0.82610
O1488       O  0.56110001  0.65173108  0.05801085    -0.85220
C1489       C  0.54674654  0.66170336  0.07404986     1.02430
O1490       O  0.52446222  0.66722274  0.06817145    -0.78040
O1491       O  0.50509205  0.62064418  0.07922788    -0.78180
C1492       C  0.50150219  0.59745380  0.07617149     1.02390
Cr1493     Cr  0.52069501  0.59835021  0.02487002     1.93740
Cr1494     Cr  0.55102149  0.64644757  0.02240832     1.93210
Cr1495     Cr  0.50040985  0.64461157  0.05078233     1.39100
O1496       O  0.52387611  0.62999789  0.03256300    -1.23270
O1497       O  0.12658035  0.23405575  0.75764390    -0.85520
O1498       O  0.12850015  0.18211678  0.76466772    -0.82570
C1499       C  0.10848077  0.18273732  0.77702359     0.97940
O1500       O  0.08774491  0.18286696  0.76551826    -0.82600
O1501       O  0.05403476  0.19569851  0.72748464    -0.85250
C1502       C  0.04915381  0.21896849  0.72984527     1.02470
O1503       O  0.06632329  0.23502298  0.72694358    -0.78010
O1504       O  0.11333853  0.25532782  0.72496081    -0.78200
C1505       C  0.12220346  0.25482615  0.74700254     1.02420
O1506       O  0.15053741  0.22787441  0.71139321    -0.85520
O1507       O  0.14703456  0.17677352  0.71538262    -0.82580
C1508       C  0.13792285  0.15507453  0.71795657     0.97960
O1509       O  0.11664172  0.15214095  0.72853258    -0.82610
O1510       O  0.08581351  0.16989114  0.69132069    -0.85220
C1511       C  0.07824003  0.18578495  0.67543777     1.02430
O1512       O  0.07505784  0.20840938  0.68164979    -0.78040
O1513       O  0.12395733  0.22519255  0.68074197    -0.78180
C1514       C  0.14619247  0.22808235  0.68830909     1.02390
Cr1515     Cr  0.13602999  0.20501812  0.73647714     1.93740
Cr1516     Cr  0.08716039  0.17683849  0.72811635     1.93210
Cr1517     Cr  0.09541191  0.22917285  0.70487020     1.39100
O1518       O  0.10593561  0.20373907  0.72317325    -1.23270
O1519       O  0.00927564  0.09997978  0.50217323    -0.85520
O1520       O  0.06086639  0.09930750  0.49306242    -0.82570
C1521       C  0.05658390  0.11581675  0.47688344     0.97940
O1522       O  0.05763593  0.13858362  0.48382625    -0.82600
O1523       O  0.04694635  0.17829806  0.51754702    -0.85250
C1524       C  0.02360593  0.18295826  0.51615920     1.02470
O1525       O  0.00789829  0.16583750  0.52096538    -0.78010
O1526       O  0.98868921  0.11875520  0.53253241    -0.78200
C1527       C  0.98888796  0.10553559  0.51276376     1.02420
O1528       O  0.01880828  0.08478311  0.55182486    -0.85520
O1529       O  0.06884735  0.08999225  0.54435687    -0.82580
C1530       C  0.09006053  0.09817948  0.53799019     0.97960
O1531       O  0.09171459  0.11704764  0.52337314    -0.82610
O1532       O  0.07493704  0.15282062  0.55634502    -0.85220
C1533       C  0.05946727  0.16229034  0.57170550     1.02430
O1534       O  0.03679399  0.16531094  0.56557709    -0.78040
O1535       O  0.02051099  0.11756565  0.57631697    -0.78180
C1536       C  0.01885499  0.09413975  0.57342983     1.02390
Cr1537     Cr  0.03947925  0.09559345  0.52310539     1.93740
Cr1538     Cr  0.06622620  0.14568119  0.52052866     1.93210
Cr1539     Cr  0.01513750  0.14095879  0.54755787     1.39100
O1540       O  0.04008903  0.12764643  0.53039323    -1.23270
O1541       O  0.21905860  0.87372157  0.26820271    -0.85520
O1542       O  0.22816961  0.91954856  0.24607409    -0.82570
C1543       C  0.23183296  0.93613719  0.22964402     0.97940
O1544       O  0.22895851  0.93065418  0.20662122    -0.82600
O1545       O  0.26463009  0.89315450  0.19626135    -0.85250
C1546       C  0.27436710  0.87150152  0.19702252     1.02470
O1547       O  0.26053869  0.85226949  0.19803727    -0.78010
O1548       O  0.24976822  0.85504719  0.24823682    -0.78200
C1549       C  0.23969938  0.86201200  0.26847444     1.02420
O1550       O  0.17495682  0.86832553  0.23757570    -0.85520
O1551       O  0.18238951  0.91507660  0.21821265    -0.82580
C1552       C  0.17593112  0.91008805  0.19597756     0.97960
O1553       O  0.19162293  0.90065088  0.18089632    -0.82610
O1554       O  0.22755696  0.86685476  0.16495049    -0.85220
C1555       C  0.21505428  0.84660555  0.16725255     1.02430
O1556       O  0.20924073  0.83880861  0.18873412    -0.78040
O1557       O  0.20049674  0.83619963  0.23889166    -0.78180
C1558       C  0.17866786  0.84516579  0.24023939     1.02390
Cr1559     Cr  0.20253139  0.89320634  0.24073917     1.93740
Cr1560     Cr  0.22781800  0.89680249  0.18900435     1.93210
Cr1561     Cr  0.22938823  0.84788523  0.21829420     1.39100
O1562       O  0.21996416  0.87939066  0.21613831    -1.23270
O1563       O  0.02422475  0.00410390  0.14075581    -0.85520
O1564       O  0.04148666  0.97774911  0.18248665    -0.82570
C1565       C  0.02330987  0.96987823  0.19555996     0.97940
O1566       O  0.00830981  0.95360461  0.18672355    -0.82600
O1567       O  0.98387531  0.92576265  0.14835250    -0.85250
C1568       C  0.97084155  0.94125469  0.13553118     1.02470
O1569       O  0.98137801  0.95791038  0.12259194    -0.78010
O1570       O  0.01630770  0.98949159  0.10320436    -0.78200
C1571       C  0.01733209  0.00762914  0.11843331     1.02420
O1572       O  0.06293210  0.98086477  0.11150095    -0.85520
O1573       O  0.07608727  0.95244372  0.15065327    -0.82580
C1574       C  0.07550538  0.93531363  0.16675633     0.97960
O1575       O  0.05490083  0.92801211  0.17625761    -0.82610
O1576       O  0.03355978  0.90272627  0.13701393    -0.85220
C1577       C  0.02493390  0.89950655  0.11527526     1.02430
O1578       O  0.00978981  0.91535349  0.10649993    -0.78040
O1579       O  0.04794452  0.94767251  0.09254807    -0.78180
C1580       C  0.06397589  0.96506307  0.09384820     1.02390
Cr1581     Cr  0.04939537  0.97707100  0.14607264     1.93740
Cr1582     Cr  0.02034927  0.92914033  0.16050979     1.93210
Cr1583     Cr  0.01470470  0.95256012  0.10845274     1.39100
O1584       O  0.02783913  0.95314228  0.13869882    -1.23270
O1585       O  0.26569779  0.21027180  0.88182471    -0.85520
O1586       O  0.24610707  0.21252932  0.92874764    -0.82570
C1587       C  0.23027795  0.21665360  0.94578150     0.97940
O1588       O  0.20698652  0.21486557  0.94126608    -0.82600
O1589       O  0.19502248  0.25349655  0.90842029    -0.85250
C1590       C  0.19465774  0.26526642  0.88787512     1.02470
O1591       O  0.19416448  0.25322202  0.86764438    -0.78010
O1592       O  0.24552145  0.24378972  0.86885573    -0.78200
C1593       C  0.26587775  0.23276224  0.87413091     1.02420
O1594       O  0.23383943  0.16718611  0.87118703    -0.85520
O1595       O  0.21763114  0.16779468  0.91951942    -0.82580
C1596       C  0.19464876  0.16292083  0.91661631     0.97960
O1597       O  0.17928275  0.17991090  0.91051797    -0.82610
O1598       O  0.16270311  0.21800101  0.88018897    -0.85220
C1599       C  0.16466794  0.20726845  0.85898493     1.02430
O1600       O  0.18594169  0.20412948  0.84909205    -0.78040
O1601       O  0.23671947  0.19763336  0.84420638    -0.78180
C1602       C  0.23610794  0.17449254  0.84887772     1.02390
Cr1603     Cr  0.23900500  0.19088784  0.89961822     1.93740
Cr1604     Cr  0.18778138  0.21633954  0.90890040     1.93210
Cr1605     Cr  0.21545696  0.22384626  0.85959275     1.39100
O1606       O  0.21411552  0.21031786  0.88960004    -1.23270
O1607       O  0.12996582  0.01646952  0.00768129    -0.85520
O1608       O  0.17790930  0.00976920  0.98976831    -0.82570
C1609       C  0.19554931  0.00578613  0.97454847     0.97940
O1610       O  0.19152504  0.00746014  0.95113705    -0.82600
O1611       O  0.15558560  0.97073196  0.93978754    -0.85250
C1612       C  0.13412227  0.96052262  0.93971515     1.02470
O1613       O  0.11502749  0.97402531  0.93661305    -0.78010
O1614       O  0.11367252  0.98469371  0.98711888    -0.78200
C1615       C  0.11897748  0.99533796  0.00753330     1.02420
O1616       O  0.12515068  0.06012503  0.97595292    -0.85520
O1617       O  0.17327157  0.05486709  0.96058560    -0.82580
C1618       C  0.17059772  0.06007074  0.93764217     0.97960
O1619       O  0.16355624  0.04352372  0.92213686    -0.82610
O1620       O  0.13106364  0.00712431  0.90496810    -0.85220
C1621       C  0.11084523  0.01981561  0.90608234     1.02430
O1622       O  0.10119981  0.02484094  0.92693347    -0.78040
O1623       O  0.09425592  0.03315827  0.97625207    -0.78180
C1624       C  0.10204154  0.05548388  0.97666502     1.02390
Cr1625     Cr  0.15080513  0.03385755  0.98175868     1.93740
Cr1626     Cr  0.15924140  0.00743189  0.93110966     1.93210
Cr1627     Cr  0.10830035  0.00480806  0.95669230     1.39100
O1628       O  0.13962280  0.01542395  0.95664453    -1.23270
O1629       O  0.90034514  0.25092358  0.22564729    -0.85520
O1630       O  0.94100028  0.22365931  0.21146522    -0.82570
C1631       C  0.95155306  0.21246888  0.22940282     0.97940
O1632       O  0.94197478  0.19309259  0.23930059    -0.82600
O1633       O  0.90040346  0.17163763  0.26220754    -0.85250
C1634       C  0.88980308  0.18887634  0.27518684     1.02470
O1635       O  0.87867569  0.20689579  0.26467106    -0.78010
O1636       O  0.86133813  0.23957195  0.22871627    -0.78200
C1637       C  0.87793347  0.25627750  0.23022337     1.02420
O1638       O  0.87263430  0.23043002  0.18287651    -0.85520
O1639       O  0.91252135  0.20263700  0.17171556    -0.82580
C1640       C  0.92416660  0.18224403  0.17148534     0.97960
O1641       O  0.92891241  0.17024138  0.19147726    -0.82610
O1642       O  0.88644814  0.14992914  0.21199017    -0.85220
C1643       C  0.86458675  0.15000126  0.22092614     1.02430
O1644       O  0.85948362  0.16618142  0.23717589    -0.78040
O1645       O  0.85085578  0.19856389  0.19727033    -0.78180
C1646       C  0.85438314  0.21522293  0.18086599     1.02390
Cr1647     Cr  0.90598690  0.22497110  0.19957489     1.93740
Cr1648     Cr  0.91320435  0.17304781  0.22588332     1.93210
Cr1649     Cr  0.86473014  0.20259293  0.23114897     1.39100
O1650       O  0.89520253  0.20025979  0.21889407    -1.23270
O1651       O  0.01703629  0.12350475  0.02316334    -0.85520
O1652       O  0.99427811  0.16914179  0.01637087    -0.82570
C1653       C  0.97777496  0.18587999  0.01407418     0.97940
O1654       O  0.95485078  0.18049851  0.01800605    -0.82600
O1655       O  0.94363932  0.14610158  0.98067723    -0.85250
C1656       C  0.94532058  0.12554501  0.96899163     1.02470
O1657       O  0.94649487  0.10511665  0.98094863    -0.78010
O1658       O  0.99714213  0.10780977  0.99090772    -0.78200
C1659       C  0.01743498  0.11337068  0.00174529     1.02420
O1660       O  0.98674493  0.11551571  0.06699022    -0.85520
O1661       O  0.96767703  0.16306512  0.06226885    -0.82580
C1662       C  0.94579837  0.15761750  0.06946759     0.97960
O1663       O  0.93031757  0.14779890  0.05443487    -0.82610
O1664       O  0.91366585  0.11655783  0.01656270    -0.85220
C1665       C  0.91682070  0.09568660  0.02764503     1.02430
O1666       O  0.93862089  0.08742212  0.03121475    -0.78040
O1667       O  0.98906520  0.08568246  0.03881460    -0.78180
C1668       C  0.99127287  0.09305862  0.06122004     1.02390
Cr1669     Cr  0.98965188  0.14196801  0.04088819     1.93740
Cr1670     Cr  0.93732250  0.14666095  0.01767234     1.93210
Cr1671     Cr  0.96752202  0.09860406  0.01120498     1.39100
O1672       O  0.96487879  0.12911620  0.02319803    -1.23270
O1673       O  0.97884415  0.35178537  0.03484933    -0.85520
O1674       O  0.99795250  0.30486279  0.02336342    -0.82570
C1675       C  0.01342725  0.28779032  0.01792573     0.97940
O1676       O  0.03687070  0.29179582  0.02006144    -0.82600
O1677       O  0.04829862  0.32811086  0.98463206    -0.85250
C1678       C  0.04697525  0.34954381  0.97456435     1.02470
O1679       O  0.04716138  0.36904548  0.98799172    -0.78010
O1680       O  0.99786877  0.36776786  0.00219219    -0.78200
C1681       C  0.97797774  0.36335155  0.01412344     1.02420
O1682       O  0.01374624  0.35451728  0.07637383    -0.85520
O1683       O  0.02856405  0.30605546  0.06697780    -0.82580
C1684       C  0.05127675  0.30971562  0.07249965     0.97960
O1685       O  0.06607295  0.31965209  0.05688024    -0.82610
O1686       O  0.08209373  0.35286709  0.02052825    -0.85220
C1687       C  0.08086513  0.37313603  0.03302685     1.02430
O1688       O  0.05991365  0.38225163  0.03866131    -0.78040
O1689       O  0.01110114  0.38622543  0.05049429    -0.78180
C1690       C  0.01284577  0.37783578  0.07250368     1.02390
Cr1691     Cr  0.00642201  0.33018027  0.04897674     1.93740
Cr1692     Cr  0.05666116  0.32420667  0.02103201     1.93210
Cr1693     Cr  0.02915610  0.37410289  0.02038379     1.39100
O1694       O  0.03066295  0.34270250  0.02997799    -1.23270
O1695       O  0.11361868  0.21755311  0.21889073    -0.85520
O1696       O  0.06765041  0.23685446  0.22985612    -0.82570
C1697       C  0.05040492  0.25215279  0.23465472     0.97940
O1698       O  0.05400552  0.27550540  0.23137216    -0.82600
O1699       O  0.09392884  0.28876832  0.26341610    -0.85250
C1700       C  0.11681068  0.28892021  0.26977225     1.02470
O1701       O  0.13286278  0.29253509  0.25291572    -0.78010
O1702       O  0.13322837  0.24061064  0.24688075    -0.78200
C1703       C  0.12687405  0.21931280  0.23857448     1.02420
O1704       O  0.11386011  0.24638921  0.17269320    -0.85520
O1705       O  0.06673509  0.26353594  0.18293045    -0.82580
C1706       C  0.07000022  0.28598954  0.17582373     0.97960
O1707       O  0.07832661  0.30222940  0.19098513    -0.82610
O1708       O  0.11416498  0.32117016  0.22198936    -0.85220
C1709       C  0.13296539  0.31930798  0.20729676     1.02430
O1710       O  0.14091191  0.29793608  0.20100476    -0.78040
O1711       O  0.14714316  0.24693491  0.19648321    -0.78180
C1712       C  0.13703965  0.24324462  0.17549995     1.02390
Cr1713     Cr  0.09126978  0.24294436  0.20219865     1.93740
Cr1714     Cr  0.08608081  0.29529934  0.22668359     1.93210
Cr1715     Cr  0.13654381  0.26953027  0.22401620     1.39100
O1716       O  0.10444271  0.26907529  0.21757212    -1.23270
O1717       O  0.73574942  0.71136565  0.60292177    -0.85520
O1718       O  0.76161595  0.69400376  0.56185901    -0.82570
C1719       C  0.77010189  0.71262973  0.54971997     0.97940
O1720       O  0.78753620  0.72603125  0.55884742    -0.82600
O1721       O  0.81380602  0.75048361  0.59801248    -0.85250
C1722       C  0.79787098  0.76348666  0.61053187     1.02470
O1723       O  0.78118091  0.75280878  0.62320447    -0.78010
O1724       O  0.74888930  0.71863359  0.64115503    -0.78200
C1725       C  0.73196189  0.71953621  0.62467019     1.02420
O1726       O  0.75689601  0.67169061  0.63328216    -0.85520
O1727       O  0.78539855  0.65817524  0.59432756    -0.82580
C1728       C  0.80330641  0.65815884  0.57912740     0.97960
O1729       O  0.81177366  0.67866514  0.57016006    -0.82610
O1730       O  0.83599474  0.69987773  0.60982958    -0.85220
C1731       C  0.83868853  0.70838412  0.63163387     1.02430
O1732       O  0.82304928  0.72403361  0.63985200    -0.78040
O1733       O  0.79015365  0.68625234  0.65244845    -0.78180
C1734       C  0.77259528  0.67047952  0.65109374     1.02390
Cr1735     Cr  0.76169229  0.68546553  0.59847727     1.93740
Cr1736     Cr  0.81069973  0.71358186  0.58568195     1.93210
Cr1737     Cr  0.78591567  0.71948567  0.63696769     1.39100
O1738       O  0.78591605  0.70646898  0.60663095    -1.23270
O1739       O  0.85421957  0.50118492  0.47996064    -0.85520
O1740       O  0.81268757  0.51839794  0.50466557    -0.82570
C1741       C  0.79965766  0.50251684  0.51655747     0.97940
O1742       O  0.80771772  0.49217959  0.53634531    -0.82600
O1743       O  0.84672957  0.46538237  0.55893731    -0.85250
C1744       C  0.85770269  0.45176836  0.54229871     1.02470
O1745       O  0.86913883  0.46183557  0.52427812    -0.78010
O1746       O  0.89205734  0.49606794  0.49383138    -0.78200
C1747       C  0.87610579  0.49307722  0.47685428     1.02420
O1748       O  0.88347947  0.54249531  0.50243784    -0.85520
O1749       O  0.84246486  0.55688435  0.52678369    -0.82580
C1750       C  0.83055406  0.55836941  0.54698792     0.97960
O1751       O  0.82403427  0.53877223  0.55897976    -0.82610
O1752       O  0.86383654  0.51532340  0.58122670    -0.85220
C1753       C  0.88447085  0.50395929  0.58193820     1.02430
O1754       O  0.88747965  0.48670629  0.56644932    -0.78040
O1755       O  0.90262415  0.52630409  0.53531499    -0.78180
C1756       C  0.90081655  0.54327334  0.51882618     1.02390
Cr1757     Cr  0.84862476  0.52811154  0.50529513     1.93740
Cr1758     Cr  0.83687799  0.50309520  0.55713119     1.93210
Cr1759     Cr  0.88590401  0.49375706  0.53010916     1.39100
O1760       O  0.85650992  0.50846332  0.53071361    -1.23270
O1761       O  0.78401536  0.37058703  0.23007106    -0.85520
O1762       O  0.77644134  0.41652361  0.25188770    -0.82570
C1763       C  0.77294668  0.43323637  0.26816854     0.97940
O1764       O  0.77670988  0.42841877  0.29115801    -0.82600
O1765       O  0.74060750  0.39284406  0.30275607    -0.85250
C1766       C  0.72985010  0.37173376  0.30212377     1.02470
O1767       O  0.74271076  0.35187511  0.30119826    -0.78010
O1768       O  0.75239380  0.35401636  0.25045354    -0.78200
C1769       C  0.76294804  0.35950453  0.23000083     1.02420
O1770       O  0.82824735  0.36450611  0.26059335    -0.85520
O1771       O  0.82276947  0.41186322  0.27893212    -0.82580
C1772       C  0.82931927  0.40767232  0.30130842     0.97960
O1773       O  0.81385786  0.39855030  0.31681668    -0.82610
O1774       O  0.77746243  0.36547508  0.33341649    -0.85220
C1775       C  0.78920036  0.34489068  0.33064107     1.02430
O1776       O  0.79362533  0.33661141  0.30901782    -0.78040
O1777       O  0.80099773  0.33377874  0.25860722    -0.78180
C1778       C  0.82314087  0.34188774  0.25629431     1.02390
Cr1779     Cr  0.80153237  0.39006646  0.25718485     1.93740
Cr1780     Cr  0.77747237  0.39518933  0.30928417     1.93210
Cr1781     Cr  0.77312173  0.34624678  0.28008914     1.39100
O1782       O  0.78404831  0.37725109  0.28214794    -1.23270
O1783       O  0.97738355  0.49964605  0.36853330    -0.85520
O1784       O  0.98367210  0.48183351  0.32023527    -0.82570
C1785       C  0.98648972  0.46679365  0.30222187     0.97940
O1786       O  0.98351642  0.44338106  0.30571072    -0.82600
O1787       O  0.02016104  0.42946226  0.34011710    -0.85250
C1788       C  0.03079989  0.42813597  0.36119244     1.02470
O1789       O  0.01785604  0.42699152  0.38097999    -0.78010
O1790       O  0.00836265  0.47760988  0.38417862    -0.78200
C1791       C  0.99826562  0.49856266  0.37997023     1.02420
O1792       O  0.93269397  0.46880481  0.37228543    -0.85520
O1793       O  0.93742297  0.45409346  0.32412381    -0.82580
C1794       C  0.93143346  0.43121970  0.32657931     0.97960
O1795       O  0.94710748  0.41522452  0.33422397    -0.82610
O1796       O  0.98383579  0.39596490  0.36504863    -0.85220
C1797       C  0.97190350  0.39680606  0.38567927     1.02430
O1798       O  0.96686634  0.41763431  0.39544413    -0.78040
O1799       O  0.95942974  0.46719103  0.40322404    -0.78180
C1800       C  0.93716064  0.46854354  0.39536356     1.02390
Cr1801     Cr  0.95922836  0.47434018  0.34700473     1.93740
Cr1802     Cr  0.98337786  0.42271720  0.33752043     1.93210
Cr1803     Cr  0.98747022  0.44737725  0.38870837     1.39100
O1804       O  0.97678775  0.44833115  0.35760042    -1.23270
O1805       O  0.25328504  0.25097520  0.35827037    -0.85520
O1806       O  0.22157080  0.21653148  0.37909646    -0.82570
C1807       C  0.20375212  0.20638236  0.39087026     0.97940
O1808       O  0.18634439  0.21977970  0.40084911    -0.82600
O1809       O  0.20663057  0.24604188  0.44083946    -0.85250
C1810       C  0.22647592  0.25565419  0.44961352     1.02470
O1811       O  0.23923954  0.27144919  0.43740164    -0.78010
O1812       O  0.26517704  0.25514827  0.39683484    -0.78200
C1813       C  0.26935826  0.24749912  0.37502985     1.02420
O1814       O  0.21224005  0.28189922  0.34676239    -0.85520
O1815       O  0.18036144  0.24161159  0.35969034    -0.82580
C1816       C  0.16463831  0.25869398  0.36240572     0.97960
O1817       O  0.16444948  0.26977446  0.38317967    -0.82610
O1818       O  0.18490105  0.29278300  0.42427468    -0.85220
C1819       C  0.19812143  0.31213497  0.41980150     1.02430
O1820       O  0.21871612  0.31089537  0.40852080    -0.78040
O1821       O  0.24441159  0.29726214  0.36771965    -0.78180
C1822       C  0.22883841  0.29866372  0.34967991     1.02390
Cr1823     Cr  0.21659787  0.24882289  0.36289971     1.93740
Cr1824     Cr  0.18735070  0.25734043  0.41094161     1.93210
Cr1825     Cr  0.24000369  0.28212082  0.40199544     1.39100
O1826       O  0.21470890  0.26292929  0.39258368    -1.23270
O1827       O  0.11837601  0.48533593  0.49587453    -0.85520
O1828       O  0.11729892  0.49392995  0.44357939    -0.82570
C1829       C  0.13417621  0.51007367  0.44664459     0.97940
O1830       O  0.15680549  0.50297230  0.44550907    -0.82600
O1831       O  0.19587077  0.46916574  0.45624166    -0.85250
C1832       C  0.20049069  0.47151615  0.47945667     1.02470
O1833       O  0.18376314  0.46638962  0.49537788    -0.78010
O1834       O  0.13783651  0.45508299  0.51593770    -0.78200
C1835       C  0.12542947  0.47538339  0.51626895     1.02420
O1836       O  0.10263551  0.43568634  0.48637192    -0.85520
O1837       O  0.10717438  0.44290387  0.43598824    -0.82580
C1838       C  0.11532142  0.44903116  0.41466365     0.97960
O1839       O  0.13420710  0.46353405  0.41270415    -0.82610
O1840       O  0.16906431  0.43027232  0.42913428    -0.85220
C1841       C  0.17842550  0.41480861  0.44443007     1.02430
O1842       O  0.18264267  0.42115525  0.46681809    -0.78040
O1843       O  0.13524299  0.41100408  0.48416886    -0.78180
C1844       C  0.11192355  0.41403299  0.48647799     1.02390
Cr1845     Cr  0.11341633  0.46424885  0.46540123     1.93740
Cr1846     Cr  0.16303728  0.46617304  0.43759522     1.93210
Cr1847     Cr  0.15895277  0.43963543  0.48888915     1.39100
O1848       O  0.14533616  0.45679301  0.46419404    -1.23270
O1849       O  0.23070729  0.77051832  0.38308563    -0.85520
O1850       O  0.25180636  0.75864703  0.42863565    -0.82570
C1851       C  0.26807108  0.75394034  0.44515156     0.97940
O1852       O  0.29134862  0.75575787  0.43998951    -0.82600
O1853       O  0.30218778  0.71929412  0.40457364    -0.85250
C1854       C  0.29967915  0.70839355  0.38371817     1.02470
O1855       O  0.29579932  0.72069463  0.36391308    -0.78010
O1856       O  0.24604689  0.73589753  0.36732174    -0.78200
C1857       C  0.22737366  0.74919499  0.37340256     1.02420
O1858       O  0.26614926  0.81029139  0.37720558    -0.85520
O1859       O  0.28253022  0.80153636  0.42541694    -0.82580
C1860       C  0.30474945  0.80758945  0.42045783     0.97960
O1861       O  0.31898230  0.79224144  0.40944310    -0.82610
O1862       O  0.33343038  0.75469160  0.37696192    -0.85220
C1863       C  0.33082105  0.76565210  0.35603606     1.02430
O1864       O  0.30925892  0.76988995  0.34746946    -0.78040
O1865       O  0.26061867  0.78348182  0.34651222    -0.78180
C1866       C  0.26342093  0.80573623  0.35416140     1.02390
Cr1867     Cr  0.25943003  0.78376168  0.40260608     1.93740
Cr1868     Cr  0.30959696  0.75599017  0.40665180     1.93210
Cr1869     Cr  0.27825693  0.75303242  0.35857001     1.39100
O1870       O  0.28238555  0.76389724  0.38934918    -1.23270
O1871       O  0.35427491  0.96406456  0.51290630    -0.85520
O1872       O  0.31303552  0.94799233  0.48687000    -0.82570
C1873       C  0.30236079  0.96634004  0.47652817     0.97940
O1874       O  0.31220484  0.97714676  0.45775473    -0.82600
O1875       O  0.35397812  0.99803893  0.43313033    -0.85250
C1876       C  0.36642080  0.01107331  0.44892509     1.02470
O1877       O  0.37782499  0.00084656  0.46683257    -0.78010
O1878       O  0.39342680  0.96639389  0.50125416    -0.78200
C1879       C  0.37674738  0.96913191  0.51780277     1.02420
O1880       O  0.38146215  0.92063495  0.49442416    -0.85520
O1881       O  0.34199925  0.90845839  0.46647443    -0.82580
C1882       C  0.32926958  0.90836006  0.44675591     0.97960
O1883       O  0.32322329  0.92848025  0.43558224    -0.82610
O1884       O  0.36492544  0.94729958  0.41286743    -0.85220
C1885       C  0.38695384  0.95558943  0.41060351     1.02430
O1886       O  0.39542656  0.97026944  0.42700470    -0.78040
O1887       O  0.40326685  0.93202998  0.46146495    -0.78180
C1888       C  0.39919614  0.91676276  0.47910437     1.02390
Cr1889     Cr  0.34834627  0.93689974  0.48822465     1.93740
Cr1890     Cr  0.33990329  0.96244489  0.43669590     1.93210
Cr1891     Cr  0.39015941  0.96658756  0.46399480     1.39100
O1892       O  0.35903799  0.95543468  0.46295823    -1.23270
O1893       O  0.72194779  0.60308027  0.73569958    -0.85520
O1894       O  0.73022795  0.55512676  0.75317911    -0.82570
C1895       C  0.73218438  0.53687547  0.76801025     0.97940
O1896       O  0.72844629  0.54007285  0.79130913    -0.82600
O1897       O  0.76433156  0.57599381  0.80559932    -0.85250
C1898       C  0.77432578  0.59757059  0.80656818     1.02470
O1899       O  0.76054909  0.61665556  0.80912315    -0.78010
O1900       O  0.75183121  0.61979792  0.75852717    -0.78200
C1901       C  0.74259020  0.61483977  0.73737988     1.02420
O1902       O  0.67650693  0.60495250  0.76523765    -0.85520
O1903       O  0.68318536  0.55675307  0.77986216    -0.82580
C1904       C  0.67568979  0.55985012  0.80215495     0.97960
O1905       O  0.69083373  0.56742702  0.81881241    -0.82610
O1906       O  0.72647657  0.59930029  0.83903052    -0.85220
C1907       C  0.71357928  0.61938435  0.83815139     1.02430
O1908       O  0.70853731  0.62905851  0.81733611    -0.78040
O1909       O  0.70206684  0.63698398  0.76792001    -0.78180
C1910       C  0.68014030  0.62825739  0.76592154     1.02390
Cr1911     Cr  0.70424630  0.58073359  0.76024124     1.93740
Cr1912     Cr  0.72737170  0.57184635  0.81216705     1.93210
Cr1913     Cr  0.73018363  0.62343935  0.78818313     1.39100
O1914       O  0.72063620  0.59191914  0.78669591    -1.23270
O1915       O  0.52717823  0.46835377  0.86335892    -0.85520
O1916       O  0.52110755  0.48761752  0.81602067    -0.82570
C1917       C  0.51805955  0.50295077  0.79834790     0.97940
O1918       O  0.52063129  0.52633027  0.80236398    -0.82600
O1919       O  0.48292389  0.53787947  0.83714411    -0.85250
C1920       C  0.47214897  0.53824691  0.85829326     1.02470
O1921       O  0.48514015  0.53945067  0.87801107    -0.78010
O1922       O  0.49574313  0.48943087  0.87952444    -0.78200
C1923       C  0.50614428  0.46882448  0.87446893     1.02420
O1924       O  0.57136688  0.49894853  0.86927725    -0.85520
O1925       O  0.56669880  0.51595842  0.82120812    -0.82580
C1926       C  0.57218949  0.53883494  0.82449625     0.97960
O1927       O  0.55605635  0.55432240  0.83241195    -0.82610
O1928       O  0.51777473  0.57160135  0.86346861    -0.85220
C1929       C  0.52851719  0.57018904  0.88467711     1.02430
O1930       O  0.53656942  0.54938879  0.89210077    -0.78040
O1931       O  0.54397680  0.49981390  0.89977256    -0.78180
C1932       C  0.56626814  0.49769675  0.89226846     1.02390
Cr1933     Cr  0.54518298  0.49449593  0.84313815     1.93740
Cr1934     Cr  0.51979340  0.54586174  0.83495792     1.93210
Cr1935     Cr  0.51608723  0.51964616  0.88518648     1.39100
O1936       O  0.52694630  0.51975901  0.85425083    -1.23270
O1937       O  0.60183724  0.71566848  0.73152538    -0.85520
O1938       O  0.56299417  0.74330129  0.71085192    -0.82570
C1939       C  0.55168543  0.75276798  0.72931760     0.97940
O1940       O  0.56187885  0.77016160  0.74182958    -0.82600
O1941       O  0.60189756  0.79570138  0.76422738    -0.85250
C1942       C  0.61450102  0.78046195  0.77777741     1.02470
O1943       O  0.62803893  0.76384427  0.76806946    -0.78010
O1944       O  0.64113158  0.72684126  0.73704006    -0.78200
C1945       C  0.62335359  0.71137678  0.74032555     1.02420
O1946       O  0.63296247  0.73029649  0.69038334    -0.85520
O1947       O  0.59691668  0.76152606  0.67422813    -0.82580
C1948       C  0.58383262  0.78106172  0.67300602     0.97960
O1949       O  0.57504878  0.79117769  0.69282251    -0.82610
O1950       O  0.61472562  0.81538717  0.71337000    -0.85220
C1951       C  0.63712728  0.81748456  0.72042637     1.02430
O1952       O  0.64648820  0.80115728  0.73466091    -0.78040
O1953       O  0.65423548  0.76405611  0.69963547    -0.78180
C1954       C  0.65086878  0.74512584  0.68591720     1.02390
Cr1955     Cr  0.59921730  0.73964923  0.70333139     1.93740
Cr1956     Cr  0.58980152  0.79127879  0.72788748     1.93210
Cr1957     Cr  0.64023672  0.76414249  0.73388491     1.39100
O1958       O  0.60941376  0.76504004  0.72212018    -1.23270
O1959       O  0.55097357  0.86671280  0.48861522    -0.85520
O1960       O  0.49977816  0.86168333  0.49933807    -0.82570
C1961       C  0.47966634  0.85696906  0.51080736     0.97940
O1962       O  0.48034429  0.84895845  0.53315405    -0.82600
O1963       O  0.50006366  0.80210913  0.52892313    -0.85250
C1964       C  0.51541937  0.78571202  0.52158540     1.02470
O1965       O  0.53874118  0.79051779  0.52060074    -0.78010
O1966       O  0.54809620  0.82682251  0.48368943    -0.78200
C1967       C  0.54719485  0.84863904  0.47428752     1.02420
O1968       O  0.55961407  0.88277549  0.53722970    -0.85520
O1969       O  0.50856723  0.88593244  0.54515898    -0.82580
C1970       C  0.51161217  0.88132123  0.56795732     0.97960
O1971       O  0.51461936  0.85893667  0.57486543    -0.82610
O1972       O  0.53101708  0.81056229  0.57147125    -0.85220
C1973       C  0.55444519  0.81213431  0.57421692     1.02430
O1974       O  0.56869789  0.81826794  0.55620347    -0.78040
O1975       O  0.58253971  0.85261783  0.52041024    -0.78180
C1976       C  0.58077894  0.87385473  0.53141338     1.02390
Cr1977     Cr  0.52975342  0.87226040  0.51827646     1.93740
Cr1978     Cr  0.50827597  0.83088917  0.55064344     1.93210
Cr1979     Cr  0.55788670  0.82314802  0.52065832     1.39100
O1980       O  0.53213326  0.84176933  0.53022556    -1.23270
O1981       O  0.38267289  0.21679043  0.78887130    -0.85520
O1982       O  0.42943626  0.23643310  0.77638771    -0.82570
C1983       C  0.44590737  0.25219052  0.76959665     0.97940
O1984       O  0.44096661  0.27558590  0.76976356    -0.82600
O1985       O  0.40406072  0.28413630  0.73361542    -0.85250
C1986       C  0.38253072  0.28088988  0.72403549     1.02470
O1987       O  0.36340049  0.28192947  0.73781407    -0.78010
O1988       O  0.36689211  0.23278722  0.75465915    -0.78200
C1989       C  0.37235263  0.21392823  0.76775491     1.02420
O1990       O  0.37787723  0.25472847  0.82759525    -0.85520
O1991       O  0.42668112  0.26952469  0.81730390    -0.82580
C1992       C  0.42242027  0.29223631  0.82201524     0.97960
O1993       O  0.41252829  0.30611374  0.80552027    -0.82610
O1994       O  0.37892476  0.31913164  0.76850474    -0.85220
C1995       C  0.35888669  0.31781111  0.78132170     1.02430
O1996       O  0.34990546  0.29678008  0.78716068    -0.78040
O1997       O  0.34731623  0.24810425  0.80129085    -0.78180
C1998       C  0.35466865  0.25270347  0.82317036     1.02390
Cr1999     Cr  0.40317837  0.24592660  0.80105568     1.93740
Cr2000     Cr  0.40808728  0.29454725  0.76990071     1.93210
Cr2001     Cr  0.35907077  0.26515834  0.77069956     1.39100
O2002       O  0.39032292  0.26843731  0.78028709    -1.23270
O2003       O  0.51356361  0.33671310  0.97808698    -0.85520
O2004       O  0.48574462  0.29766781  0.95986972    -0.82570
C2005       C  0.47680397  0.28619075  0.97860248     0.97940
O2006       O  0.45924128  0.29579234  0.99140776    -0.82600
O2007       O  0.43479657  0.33583955  0.01569947    -0.85250
C2008       C  0.45133327  0.34719064  0.02895655     1.02470
O2009       O  0.46885618  0.35907822  0.01870219    -0.78010
O2010       O  0.50285654  0.37562515  0.98554248    -0.78200
C2011       C  0.51851915  0.35786676  0.98721667     1.02420
O2012       O  0.49462232  0.36873205  0.93847577    -0.85520
O2013       O  0.46452760  0.33129200  0.92398671    -0.82580
C2014       C  0.44580074  0.31708987  0.92365935     0.97960
O2015       O  0.43593043  0.30896790  0.94383266    -0.82610
O2016       O  0.41379132  0.34953109  0.96557859    -0.85220
C2017       C  0.41200741  0.37128161  0.97457188     1.02430
O2018       O  0.42830819  0.37876527  0.98994996    -0.78040
O2019       O  0.46218251  0.38944350  0.95262182    -0.78180
C2020       C  0.47920042  0.38672068  0.93651782     1.02390
Cr2021     Cr  0.48782622  0.33414942  0.95173790     1.93740
Cr2022     Cr  0.43762748  0.32386158  0.97891269     1.93210
Cr2023     Cr  0.46537114  0.37361599  0.98569909     1.39100
O2024       O  0.46367787  0.34346978  0.97233004    -1.23270
O2025       O  0.24356779  0.35399025  0.24583923    -0.85520
O2026       O  0.23314357  0.35344148  0.19538764    -0.82570
C2027       C  0.21971646  0.37294223  0.19396062     0.97940
O2028       O  0.22970680  0.39447744  0.19416113    -0.82600
O2029       O  0.26572283  0.43069048  0.20582660    -0.85250
C2030       C  0.26255519  0.43594143  0.22876889     1.02470
O2031       O  0.26516937  0.41915930  0.24520039    -0.78010
O2032       O  0.27409608  0.37254024  0.26626267    -0.78200
C2033       C  0.25383701  0.36012852  0.26623537     1.02420
O2034       O  0.29295361  0.33600377  0.23595358    -0.85520
O2035       O  0.28477398  0.34026085  0.18599317    -0.82580
C2036       C  0.27955618  0.34897130  0.16474319     0.97960
O2037       O  0.26657669  0.36881096  0.16300158    -0.82610
O2038       O  0.30269278  0.40121349  0.18023410    -0.85220
C2039       C  0.31817600  0.41012268  0.19579246     1.02430
O2040       O  0.31134718  0.41516647  0.21788419    -0.78040
O2041       O  0.31854429  0.36814574  0.23617458    -0.78180
C2042       C  0.31488597  0.34483522  0.23736334     1.02390
Cr2043     Cr  0.26418089  0.34818422  0.21565119     1.93740
Cr2044     Cr  0.26648989  0.39773406  0.18766782     1.93210
Cr2045     Cr  0.29086791  0.39287055  0.23967212     1.39100
O2046       O  0.27365822  0.37969940  0.21455832    -1.23270
O2047       O  0.48257271  0.49131073  0.11003025    -0.85520
O2048       O  0.51480130  0.45647709  0.12874571    -0.82570
C2049       C  0.52393409  0.43772834  0.13962699     0.97940
O2050       O  0.50962522  0.42186403  0.15040094    -0.82600
O2051       O  0.48652058  0.44935754  0.18901313    -0.85250
C2052       C  0.47302357  0.46646103  0.19846469     1.02470
O2053       O  0.45385152  0.47449437  0.18691976    -0.78010
O2054       O  0.47138251  0.50299384  0.14782285    -0.78200
C2055       C  0.48088334  0.50802347  0.12685053     1.02420
O2056       O  0.44993507  0.45076369  0.09493764    -0.85520
O2057       O  0.48478399  0.41604558  0.10809253    -0.82580
C2058       C  0.46896660  0.40010205  0.11592821     0.97960
O2059       O  0.45955191  0.40260956  0.13740986    -0.82610
O2060       O  0.43889807  0.42641340  0.17788355    -0.85220
C2061       C  0.41879827  0.43397330  0.16772042     1.02430
O2062       O  0.41911848  0.45160525  0.15224007    -0.78040
O2063       O  0.43364890  0.48236485  0.11536179    -0.78180
C2064       C  0.43327294  0.46729262  0.09701342     1.02390
Cr2065     Cr  0.48215250  0.45359002  0.11251796     1.93740
Cr2066     Cr  0.47345563  0.42679873  0.16230744     1.93210
Cr2067     Cr  0.44609205  0.47611214  0.15021966     1.39100
O2068       O  0.46748793  0.45240234  0.14193779    -1.23270
O2069       O  0.35891369  0.24692677  0.26973665    -0.85520
O2070       O  0.37688901  0.21608455  0.23390766    -0.82570
C2071       C  0.38504802  0.19753995  0.22200089     0.97940
O2072       O  0.39818112  0.18101243  0.23327316    -0.82600
O2073       O  0.44036750  0.20596512  0.25506031    -0.85250
C2074       C  0.45040016  0.22372350  0.26742987     1.02470
O2075       O  0.43949242  0.23307861  0.28628060    -0.78010
O2076       O  0.39744945  0.25998214  0.27329577    -0.78200
C2077       C  0.37523478  0.26365796  0.26629335     1.02420
O2078       O  0.34958923  0.20488986  0.30089910    -0.85520
O2079       O  0.35836167  0.17305810  0.26116445    -0.82580
C2080       C  0.36681245  0.15616387  0.27530451     0.97960
O2081       O  0.38901049  0.15818644  0.28323125    -0.82610
O2082       O  0.43112204  0.18069444  0.30179781    -0.85220
C2083       C  0.42514632  0.18999388  0.32281856     1.02430
O2084       O  0.41156088  0.20910803  0.32472520    -0.78040
O2085       O  0.37082170  0.23710378  0.31547347    -0.78180
C2086       C  0.35300265  0.22137147  0.31755247     1.02390
Cr2087     Cr  0.36314261  0.21005524  0.26709163     1.93740
Cr2088     Cr  0.41339544  0.18333444  0.26875125     1.93210
Cr2089     Cr  0.40421120  0.23305664  0.29832871     1.39100
O2090       O  0.39399544  0.20879127  0.27818940    -1.23270
O2091       O  0.50673680  0.10701218  0.49714402    -0.85520
O2092       O  0.45625498  0.10311462  0.50826166    -0.82570
C2093       C  0.45403372  0.12350188  0.52003590     0.97940
O2094       O  0.45267891  0.14402085  0.50834305    -0.82600
O2095       O  0.46402260  0.17787982  0.47114868    -0.85250
C2096       C  0.48697153  0.18329208  0.47437195     1.02470
O2097       O  0.50378228  0.16710015  0.47032621    -0.78010
O2098       O  0.52568441  0.12106274  0.46354119    -0.78200
C2099       C  0.52668103  0.11282387  0.48569813     1.02420
O2100       O  0.49755391  0.08359064  0.45001469    -0.85520
O2101       O  0.44753069  0.08511836  0.45855410    -0.82580
C2102       C  0.42584963  0.09391675  0.46164187     0.97960
O2103       O  0.42284111  0.11483073  0.47258554    -0.82610
O2104       O  0.43857430  0.14640606  0.43504578    -0.85220
C2105       C  0.45350320  0.15681987  0.41990881     1.02430
O2106       O  0.47601509  0.16069543  0.42582308    -0.78040
O2107       O  0.49314245  0.11227797  0.42114965    -0.78180
C2108       C  0.49526720  0.08950861  0.42728500     1.02390
Cr2109     Cr  0.47677973  0.09678195  0.47780348     1.93740
Cr2110     Cr  0.44633749  0.14463555  0.47144886     1.93210
Cr2111     Cr  0.49802533  0.13937291  0.44652268     1.39100
O2112       O  0.47373394  0.12708524  0.46540009    -1.23270
C2113       C  0.44961925  0.19476090  0.36107105    -0.21480
C2114       C  0.43456099  0.17946613  0.34602800    -0.09520
C2115       C  0.42486313  0.15687404  0.35550060     0.29330
C2116       C  0.43021452  0.14978364  0.38014441    -0.21480
C2117       C  0.44541132  0.16515514  0.39516795    -0.09540
C2118       C  0.45522824  0.18761934  0.38540611     0.29340
F2119       F  0.46978074  0.20296345  0.39963839    -0.20060
H2120       H  0.45652692  0.21259846  0.35409147     0.17710
H2121       H  0.42287830  0.13222816  0.38735975     0.17710
F2122       F  0.40947863  0.14235429  0.34131461    -0.20050
C2123       C  0.35377538  0.33048561  0.25956536    -0.21480
C2124       C  0.33571364  0.32710123  0.24068360    -0.09520
C2125       C  0.33530760  0.30457292  0.22704410     0.29330
C2126       C  0.35086153  0.28484967  0.23386044    -0.21480
C2127       C  0.36690168  0.28708249  0.25451787    -0.09540
C2128       C  0.36933500  0.31041131  0.26660937     0.29340
F2129       F  0.38458519  0.31292436  0.28680205    -0.20060
H2130       H  0.35432110  0.34779208  0.27021659     0.17710
H2131       H  0.34884814  0.26700195  0.22427970     0.17710
F2132       F  0.31851540  0.30096565  0.20826247    -0.20050
C2133       C  0.35073455  0.41697374  0.16317792    -0.21480
C2134       C  0.34440934  0.41445627  0.18852128    -0.09520
C2135       C  0.36352306  0.41525016  0.20679774     0.29330
C2136       C  0.38833083  0.41973399  0.19976276    -0.21480
C2137       C  0.39427509  0.42378285  0.17458084    -0.09540
C2138       C  0.37544219  0.42180101  0.15622207     0.29340
F2139       F  0.38087869  0.42520035  0.13158348    -0.20060
H2140       H  0.33644554  0.41593319  0.14878838     0.17710
H2141       H  0.40263916  0.42135391  0.21408636     0.17710
F2142       F  0.35828804  0.41185317  0.23146513    -0.20050
C2143       C  0.47301440  0.34707699  0.06949637    -0.21480
C2144       C  0.45022053  0.34997434  0.05648449    -0.09520
C2145       C  0.43154972  0.36529580  0.06711088     0.29330
C2146       C  0.43693538  0.37981088  0.08847184    -0.21480
C2147       C  0.46101604  0.37938463  0.09923999    -0.09540
C2148       C  0.47857770  0.36195538  0.09038328     0.29340
F2149       F  0.50187425  0.36088898  0.10054094    -0.20060
H2150       H  0.48785513  0.33573355  0.06146860     0.17710
H2151       H  0.42318165  0.39328679  0.09498165     0.17710
F2152       F  0.40962731  0.36915000  0.05478311    -0.20050
C2153       C  0.44976565  0.29039292  0.85919324    -0.21480
C2154       C  0.42887318  0.30112628  0.84734304    -0.09520
C2155       C  0.41238136  0.31613832  0.86146294     0.29330
C2156       C  0.41676611  0.32001093  0.88713312    -0.21480
C2157       C  0.43755631  0.30889185  0.89882238    -0.09540
C2158       C  0.45419575  0.29437698  0.88455561     0.29340
F2159       F  0.47512659  0.28448076  0.89514892    -0.20060
H2160       H  0.46261532  0.27858671  0.84876382     0.17710
H2161       H  0.40437928  0.33215665  0.89771445     0.17710
F2162       F  0.39172743  0.32630672  0.85070232    -0.20050
C2163       C  0.55871910  0.80843375  0.64457452    -0.21480
C2164       C  0.57826328  0.79122781  0.64782218    -0.09520
C2165       C  0.59181634  0.78295945  0.62651467     0.29330
C2166       C  0.58495941  0.79085369  0.60250341    -0.21480
C2167       C  0.56440899  0.80676073  0.59931819    -0.09540
C2168       C  0.55172685  0.81603471  0.62057268     0.29340
F2169       F  0.53224305  0.83221784  0.61810478    -0.20060
H2170       H  0.54823418  0.81534560  0.66053909     0.17710
H2171       H  0.59496046  0.78363409  0.58636214     0.17710
F2172       F  0.61138283  0.76681197  0.62871567    -0.20050
C2173       C  0.47345441  0.44665258  0.89931444    -0.21480
C2174       C  0.49537221  0.44547466  0.88470304    -0.09520
C2175       C  0.50899872  0.42287754  0.88384303     0.29330
C2176       C  0.50256792  0.40314399  0.89970752    -0.21480
C2177       C  0.48245449  0.40551417  0.91652935    -0.09540
C2178       C  0.46697545  0.42686729  0.91513621     0.29340
F2179       F  0.44653429  0.42943883  0.93011952    -0.20060
H2180       H  0.46222767  0.46358719  0.89986192     0.17710
H2181       H  0.51429867  0.38655355  0.89979549     0.17710
F2182       F  0.52968318  0.42042487  0.86919244    -0.20050
C2183       C  0.64117151  0.55139155  0.83302817    -0.21480
C2184       C  0.64897786  0.55502989  0.80814496    -0.09520
C2185       C  0.63074021  0.55511951  0.78893402     0.29330
C2186       C  0.60549955  0.55087158  0.79452394    -0.21480
C2187       C  0.59793365  0.54683717  0.81924942    -0.09540
C2188       C  0.61583586  0.54714156  0.83854563     0.29340
F2189       F  0.60889814  0.54247178  0.86258146    -0.20060
H2190       H  0.65472117  0.55139469  0.84814177     0.17710
H2191       H  0.59186320  0.55034827  0.77948236     0.17710
F2192       F  0.63715505  0.55960022  0.76472098    -0.20050
C2193       C  0.65996626  0.66748427  0.77921651    -0.21480
C2194       C  0.65930522  0.64604545  0.76400789    -0.09520
C2195       C  0.64122333  0.64412626  0.74497043     0.29330
C2196       C  0.62634682  0.66498287  0.73912934    -0.21480
C2197       C  0.62950380  0.68753370  0.75239092    -0.09540
C2198       C  0.64508285  0.68809810  0.77354857     0.29340
F2199       F  0.64793173  0.70955450  0.78701927    -0.20060
H2200       H  0.67343580  0.66897163  0.79435673     0.17710
H2201       H  0.61452872  0.66438792  0.72263194     0.17710
F2202       F  0.64008464  0.62340003  0.73021896    -0.20050
C2203       C  0.36774601  0.05414178  0.46556500    -0.21480
C2204       C  0.37179780  0.03782071  0.44526293    -0.09520
C2205       C  0.38998056  0.04411291  0.42729123     0.29330
C2206       C  0.40633875  0.06415124  0.43166722    -0.21480
C2207       C  0.40429146  0.07853243  0.45363831    -0.09540
C2208       C  0.38375627  0.07459951  0.46965735     0.29340
F2209       F  0.38121053  0.08825919  0.49097448    -0.20060
H2210       H  0.35414143  0.04928000  0.47987533     0.17710
H2211       H  0.42192279  0.06711589  0.41894168     0.17710
F2212       F  0.39463258  0.02849317  0.40774787    -0.20050
C2213       C  0.41465443  0.88260972  0.50654948    -0.21480
C2214       C  0.41643972  0.89576167  0.48378771    -0.09520
C2215       C  0.43622039  0.89025298  0.46728406     0.29330
C2216       C  0.45555235  0.87451883  0.47506282    -0.21480
C2217       C  0.45570830  0.86469323  0.49950301    -0.09540
C2218       C  0.43413729  0.86719997  0.51444964     0.29340
F2219       F  0.43279335  0.85687709  0.53767009    -0.20060
H2220       H  0.39911594  0.88575722  0.51925656     0.17710
H2221       H  0.47129081  0.87165769  0.46262531     0.17710
F2222       F  0.43784607  0.90131634  0.44442727    -0.20050
C2223       C  0.32696414  0.84769554  0.41086025    -0.21480
C2224       C  0.31284394  0.83290407  0.42749265    -0.09520
C2225       C  0.30300083  0.84376298  0.44939198     0.29330
C2226       C  0.30721976  0.86894749  0.45455409    -0.21480
C2227       C  0.32102714  0.88383059  0.43792556    -0.09540
C2228       C  0.33104183  0.87316996  0.41603821     0.29340
F2229       F  0.34547078  0.88709775  0.40032256    -0.20060
H2230       H  0.33426254  0.83968904  0.39367671     0.17710
H2231       H  0.30015271  0.87680033  0.47191992     0.17710
F2232       F  0.28943711  0.82990964  0.46595078    -0.20050
C2233       C  0.25317757  0.33423317  0.33173005    -0.21480
C2234       C  0.23186386  0.31874612  0.33081241    -0.09520
C2235       C  0.21509806  0.32134211  0.31061671     0.29330
C2236       C  0.22130066  0.33667030  0.29032443    -0.21480
C2237       C  0.24407513  0.34994035  0.29003621    -0.09540
C2238       C  0.25925419  0.34977326  0.31164224     0.29340
F2239       F  0.28109235  0.36289512  0.31267276    -0.20060
H2240       H  0.26609302  0.33324239  0.34735657     0.17710
H2241       H  0.20892300  0.33701680  0.27423250     0.17710
F2242       F  0.19329677  0.30828073  0.30983625    -0.20050
C2243       C  0.31305354  0.20854332  0.33772269    -0.21480
C2244       C  0.33449543  0.22390084  0.33794528    -0.09520
C2245       C  0.33618417  0.24345073  0.35572002     0.29330
C2246       C  0.31544998  0.24937200  0.37061959    -0.21480
C2247       C  0.29304988  0.23595078  0.36779072    -0.09540
C2248       C  0.29237530  0.21465015  0.35235991     0.29340
F2249       F  0.27088143  0.20117175  0.34970811    -0.20060
H2250       H  0.31142473  0.19298134  0.32474300     0.17710
H2251       H  0.31610893  0.26589747  0.38244834     0.17710
F2252       F  0.35696369  0.25813050  0.35729990    -0.20050
C2253       C  0.20862993  0.35118906  0.44180653    -0.21480
C2254       C  0.19081907  0.33723197  0.42833753    -0.09520
C2255       C  0.16912922  0.34912305  0.41939817     0.29330
C2256       C  0.16565753  0.37487944  0.42363207    -0.21480
C2257       C  0.18364267  0.38878063  0.43706531    -0.09540
C2258       C  0.20501622  0.37664441  0.44637557     0.29340
F2259       F  0.22266445  0.38955283  0.45946273    -0.20060
H2260       H  0.22573471  0.34237256  0.44834044     0.17710
H2261       H  0.14874074  0.38387256  0.41688128     0.17710
F2262       F  0.15197704  0.33614301  0.40576958    -0.20050
C2263       C  0.07012890  0.45250942  0.36120756    -0.21480
C2264       C  0.05813569  0.42918643  0.36415603    -0.09520
C2265       C  0.06970400  0.41053608  0.37864194     0.29330
C2266       C  0.09090111  0.41632632  0.39281838    -0.21480
C2267       C  0.10079135  0.44075913  0.39271087    -0.09540
C2268       C  0.09143938  0.45836316  0.37547405     0.29340
F2269       F  0.10043965  0.48221988  0.37516400    -0.20060
H2270       H  0.06115120  0.46727527  0.35052608     0.17710
H2271       H  0.09798295  0.40248358  0.40590118     0.17710
F2272       F  0.05847693  0.38785320  0.38177575    -0.20050
C2273       C  0.87456915  0.41025563  0.29056984    -0.21480
C2274       C  0.85546690  0.41311174  0.30857712    -0.09520
C2275       C  0.86184574  0.42082080  0.33294067     0.29330
C2276       C  0.88687082  0.42623580  0.33882210    -0.21480
C2277       C  0.90574820  0.42356338  0.32066164    -0.09540
C2278       C  0.89955334  0.41529530  0.29658721     0.29340
F2279       F  0.91760267  0.41252830  0.27884753    -0.20060
H2280       H  0.87013700  0.40397437  0.27177228     0.17710
H2281       H  0.89151783  0.43284436  0.35745858     0.17710
F2282       F  0.84388507  0.42399564  0.35069937    -0.20050
C2283       C  0.90255800  0.46219726  0.45585678    -0.21480
C2284       C  0.88470925  0.48137091  0.45361763    -0.09520
C2285       C  0.88081290  0.49286239  0.43027691     0.29330
C2286       C  0.89682457  0.48718993  0.41022436    -0.21480
C2287       C  0.91677256  0.47033191  0.41367593    -0.09540
C2288       C  0.91865031  0.45683409  0.43615780     0.29340
F2289       F  0.93710606  0.43962952  0.43965961    -0.20060
H2290       H  0.90555925  0.45294561  0.47369879     0.17710
H2291       H  0.89499814  0.49748329  0.39281643     0.17710
F2292       F  0.86363745  0.51146158  0.42771627    -0.20050
C2293       C  0.82824573  0.60468138  0.53987763    -0.21480
C2294       C  0.82441766  0.58396485  0.55600041    -0.09520
C2295       C  0.81555072  0.58838038  0.58035348     0.29330
C2296       C  0.80991095  0.61282193  0.58796686    -0.21480
C2297       C  0.81301028  0.63335685  0.57155760    -0.09540
C2298       C  0.82263816  0.62911574  0.54753028     0.29340
F2299       F  0.82538583  0.64829893  0.53100736    -0.20060
H2300       H  0.83519766  0.60198965  0.52099182     0.17710
H2301       H  0.80264506  0.61566481  0.60672434     0.17710
F2302       F  0.81231470  0.56922367  0.59681627    -0.20050
C2303       C  0.78131530  0.65598397  0.69457966    -0.21480
C2304       C  0.76878916  0.65239982  0.67169687    -0.09520
C2305       C  0.75075555  0.63319283  0.66979914     0.29330
C2306       C  0.74368468  0.61965674  0.69101919    -0.21480
C2307       C  0.75439873  0.62499716  0.71447108    -0.09540
C2308       C  0.77420535  0.64249535  0.71584199     0.29340
F2309       F  0.78554968  0.64794900  0.73795723    -0.20060
H2310       H  0.79559523  0.67036086  0.69647344     0.17710
H2311       H  0.72879907  0.60589391  0.68928088     0.17710
F2312       F  0.73906084  0.62824233  0.64775599    -0.20050
C2313       C  0.69092773  0.70844216  0.64106014    -0.21480
C2314       C  0.70720089  0.72722069  0.63263142    -0.09520
C2315       C  0.70300989  0.75233272  0.63912451     0.29330
C2316       C  0.68364028  0.75835980  0.65558183    -0.21480
C2317       C  0.66855627  0.73928799  0.66575600    -0.09540
C2318       C  0.67170352  0.71432678  0.65764462     0.29340
F2319       F  0.65791552  0.69527804  0.66753423    -0.20060
H2320       H  0.69461733  0.68890431  0.63673098     0.17710
H2321       H  0.68124880  0.77771678  0.66134560     0.17710
F2322       F  0.71888713  0.77062377  0.63115532    -0.20050
C2323       C  0.16115108  0.34000923  0.17682502    -0.21480
C2324       C  0.14826968  0.34120470  0.19976913    -0.09520
C2325       C  0.15561944  0.35928166  0.21755737     0.29330
C2326       C  0.17771158  0.37319208  0.21380821    -0.21480
C2327       C  0.19244399  0.36918966  0.19234560    -0.09540
C2328       C  0.18314239  0.35377116  0.17316134     0.29340
F2329       F  0.19708686  0.34947257  0.15229556    -0.20060
H2330       H  0.15574612  0.32630078  0.16280970     0.17710
H2331       H  0.18486240  0.38464969  0.22899503     0.17710
F2332       F  0.14370174  0.36084751  0.23998553    -0.20050
C2333       C  0.12634680  0.27810972  0.34063477    -0.21480
C2334       C  0.15029907  0.26679583  0.33998158    -0.09520
C2335       C  0.16190618  0.26321110  0.31661956     0.29330
C2336       C  0.15059983  0.27122691  0.29490378    -0.21480
C2337       C  0.12664258  0.28199104  0.29489088    -0.09540
C2338       C  0.11422841  0.28519428  0.31803106     0.29340
F2339       F  0.09103030  0.29558921  0.31886026    -0.20060
H2340       H  0.11698573  0.28106975  0.35840039     0.17710
H2341       H  0.16102448  0.26859549  0.27767489     0.17710
F2342       F  0.18501405  0.25268083  0.31445714    -0.20050
C2343       C  0.06545132  0.32244357  0.11472637    -0.21480
C2344       C  0.05947845  0.30319286  0.09783636    -0.09520
C2345       C  0.05674181  0.27856064  0.10658964     0.29330
C2346       C  0.05975472  0.27328048  0.13201435    -0.21480
C2347       C  0.06521662  0.29254836  0.14926269    -0.09540
C2348       C  0.06823907  0.31727144  0.14028062     0.29340
F2349       F  0.07345965  0.33651766  0.15612006    -0.20060
H2350       H  0.06687134  0.34168493  0.10825585     0.17710
H2351       H  0.05780963  0.25399571  0.13816156     0.17710
F2352       F  0.05089543  0.25967157  0.09052612    -0.20050
C2353       C  0.97805679  0.25714924  0.01260918    -0.21480
C2354       C  0.00397685  0.26225773  0.01168469    -0.09520
C2355       C  0.02061745  0.24215399  0.00762474     0.29330
C2356       C  0.01163043  0.21751528  0.00659106    -0.21480
C2357       C  0.98593020  0.21221920  0.00966596    -0.09540
C2358       C  0.96906564  0.23244747  0.01164085     0.29340
F2359       F  0.94403775  0.22842458  0.01415654    -0.20060
H2360       H  0.96470289  0.27219762  0.01542007     0.17710
H2361       H  0.02510577  0.20243314  0.00467156     0.17710
F2362       F  0.04574910  0.24600823  0.00602341    -0.20050
C2363       C  0.00428403  0.25844453  0.23899589    -0.21480
C2364       C  0.02501479  0.24233719  0.24073232    -0.09520
C2365       C  0.02065225  0.21631190  0.24385692     0.29330
C2366       C  0.99622790  0.20659719  0.24247266    -0.21480
C2367       C  0.97592945  0.22259563  0.23782629    -0.09540
C2368       C  0.98000964  0.24872057  0.23741540     0.29340
F2369       F  0.96059499  0.26482534  0.23392898    -0.20060
H2370       H  0.00690619  0.27850880  0.23690825     0.17710
H2371       H  0.99345133  0.18645092  0.24304498     0.17710
F2372       F  0.04003157  0.20001058  0.24643494    -0.20050
C2373       C  0.85032293  0.29051304  0.21818064    -0.21480
C2374       C  0.86963709  0.28209570  0.23381834    -0.09520
C2375       C  0.87676562  0.29638231  0.25474173     0.29330
C2376       C  0.86290803  0.31782813  0.26111448    -0.21480
C2377       C  0.84204628  0.32469347  0.24660623    -0.09540
C2378       C  0.83653122  0.31159261  0.22453500     0.29340
F2379       F  0.81651601  0.31807589  0.21018941    -0.20060
H2380       H  0.84472430  0.27963017  0.20193506     0.17710
H2381       H  0.86709698  0.32774081  0.27834299     0.17710
F2382       F  0.89526366  0.28827484  0.27019304    -0.20050
C2383       C  0.92378675  0.15089059  0.13666128    -0.21480
C2384       C  0.93247399  0.17362818  0.14677104    -0.09520
C2385       C  0.94479658  0.19095839  0.13118415     0.29330
C2386       C  0.94830648  0.18573623  0.10593524    -0.21480
C2387       C  0.93920492  0.16337255  0.09554157    -0.09540
C2388       C  0.92705901  0.14576482  0.11105462     0.29340
F2389       F  0.91894828  0.12352831  0.10160719    -0.20060
H2390       H  0.91365351  0.13766197  0.14832126     0.17710
H2391       H  0.95804705  0.19934436  0.09435407     0.17710
F2392       F  0.95287281  0.21335012  0.14034840    -0.20050
C2393       C  0.08499240  0.09275460  0.99863665    -0.21480
C2394       C  0.08355224  0.07561239  0.97885186    -0.09520
C2395       C  0.06219486  0.07517857  0.96349148     0.29330
C2396       C  0.04143655  0.08982690  0.96950643    -0.21480
C2397       C  0.04155200  0.10473103  0.99120100    -0.09540
C2398       C  0.06408492  0.10724160  0.00492886     0.29340
F2399       F  0.06534348  0.12194617  0.02567019    -0.20060
H2400       H  0.10147318  0.09335596  0.01049458     0.17710
H2401       H  0.02460658  0.08789171  0.95829215     0.17710
F2402       F  0.06082358  0.05934179  0.94360447    -0.20050
C2403       C  0.29090638  0.26318427  0.84956979    -0.21480
C2404       C  0.29022348  0.24449274  0.86794993    -0.09520
C2405       C  0.31301877  0.23375561  0.87615206     0.29330
C2406       C  0.33544730  0.23898792  0.86345430    -0.21480
C2407       C  0.33517905  0.25479789  0.84253748    -0.09540
C2408       C  0.31306396  0.26804961  0.83669321     0.29340
F2409       F  0.31204723  0.28358478  0.81661004    -0.20060
H2410       H  0.27378946  0.27203072  0.84313930     0.17710
H2411       H  0.35228248  0.22869962  0.86827643     0.17710
F2412       F  0.31327111  0.21654453  0.89490088    -0.20050
C2413       C  0.19991733  0.11744427  0.90815925    -0.21480
C2414       C  0.18645316  0.13678051  0.92008108    -0.09520
C2415       C  0.16664106  0.13064433  0.93621391     0.29330
C2416       C  0.16126916  0.10544478  0.94128307    -0.21480
C2417       C  0.17506553  0.08612145  0.92976457    -0.09540
C2418       C  0.19405175  0.09223510  0.91267246     0.29340
F2419       F  0.20773943  0.07392957  0.90146524    -0.20060
H2420       H  0.21525065  0.12192482  0.89558113     0.17710
H2421       H  0.14655778  0.10098444  0.95457412     0.17710
F2422       F  0.15352061  0.14892314  0.94812559    -0.20050
C2423       C  0.09717409  0.99104155  0.07435945    -0.21480
C2424       C  0.08239060  0.96919395  0.07363274    -0.09520
C2425       C  0.08353423  0.95362316  0.05238181     0.29330
C2426       C  0.09716410  0.96131632  0.03134927    -0.21480
C2427       C  0.10980464  0.98453415  0.03127182    -0.09540
C2428       C  0.11061309  0.99878419  0.05345185     0.29340
F2429       F  0.12270056  0.02122544  0.05452946    -0.20060
H2430       H  0.09710066  0.00320676  0.09062760     0.17710
H2431       H  0.09663455  0.94974560  0.01465937     0.17710
F2432       F  0.07047587  0.93174968  0.05134135    -0.20050
C2433       C  0.02035615  0.05926897  0.07167221    -0.21480
C2434       C  0.00100980  0.07509884  0.07958814    -0.09520
C2435       C  0.98956342  0.07102231  0.10302510     0.29330
C2436       C  0.99609856  0.04977617  0.11724341    -0.21480
C2437       C  0.01404088  0.03285541  0.10799285    -0.09540
C2438       C  0.02684319  0.03839226  0.08565618     0.29340
F2439       F  0.04464400  0.02264218  0.07649260    -0.20060
H2440       H  0.02962416  0.06236352  0.05383599     0.17710
H2441       H  0.98602723  0.04564833  0.13439358     0.17710
F2442       F  0.97076282  0.08619686  0.11103199    -0.20050
C2443       C  0.27074996  0.83686082  0.29213732    -0.21480
C2444       C  0.25048899  0.85363414  0.29254012    -0.09520
C2445       C  0.23837948  0.85860765  0.31556636     0.29330
C2446       C  0.24456147  0.84469653  0.33692769    -0.21480
C2447       C  0.26261963  0.82572693  0.33539041    -0.09540
C2448       C  0.27655076  0.82277017  0.31324487     0.29340
F2449       F  0.29436356  0.80470338  0.31133894    -0.20060
H2450       H  0.28076316  0.83295405  0.27489874     0.17710
H2451       H  0.23369584  0.84714996  0.35391818     0.17710
F2452       F  0.21922964  0.87530947  0.31702927    -0.20050
C2453       C  0.13195066  0.92217478  0.20654233    -0.21480
C2454       C  0.14974597  0.91514440  0.18827543    -0.09520
C2455       C  0.14184295  0.91217677  0.16330022     0.29330
C2456       C  0.11705848  0.91747104  0.15670744    -0.21480
C2457       C  0.09963596  0.92510430  0.17489855    -0.09540
C2458       C  0.10707741  0.92701034  0.19995761     0.29340
F2459       F  0.09076258  0.93511860  0.21773944    -0.20060
H2460       H  0.13732050  0.92424873  0.22600176     0.17710
H2461       H  0.11154360  0.91621932  0.13720229     0.17710
F2462       F  0.15806567  0.90477771  0.14513857    -0.20050
C2463       C  0.10992767  0.20956025  0.81456795    -0.21480
C2464       C  0.11118685  0.18522821  0.80436422    -0.09520
C2465       C  0.12563759  0.16703685  0.81678238     0.29330
C2466       C  0.14126274  0.17394119  0.83666309    -0.21480
C2467       C  0.14240663  0.19897039  0.84475933    -0.09540
C2468       C  0.12553305  0.21648547  0.83463682     0.29340
F2469       F  0.12657829  0.24093326  0.84176295    -0.20060
H2470       H  0.09952175  0.22407230  0.80488473     0.17710
H2471       H  0.15418184  0.16020283  0.84423082     0.17710
F2472       F  0.12748514  0.14347952  0.80724847    -0.20050
C2473       C  0.08739639  0.16010336  0.63705636    -0.21480
C2474       C  0.07321373  0.17878441  0.64912810    -0.09520
C2475       C  0.05585459  0.19278161  0.63505879     0.29330
C2476       C  0.05268000  0.18809409  0.60961977    -0.21480
C2477       C  0.06669856  0.16944431  0.59743777    -0.09540
C2478       C  0.08426853  0.15549269  0.61133094     0.29340
F2479       F  0.09759475  0.13679108  0.60034965    -0.20060
H2480       H  0.10114854  0.14937030  0.64744645     0.17710
H2481       H  0.03876022  0.19884349  0.59945804     0.17710
F2482       F  0.04151862  0.21078594  0.64598280    -0.20050
C2483       C  0.51137922  0.58214514  0.92452827    -0.21480
C2484       C  0.52599080  0.58957295  0.90415481    -0.09520
C2485       C  0.54269493  0.60992286  0.90701493     0.29330
C2486       C  0.54546097  0.62159638  0.93070885    -0.21480
C2487       C  0.53268257  0.61189884  0.95172986    -0.09540
C2488       C  0.51557344  0.59202358  0.94807814     0.29340
F2489       F  0.50470390  0.57996020  0.96762957    -0.20060
H2490       H  0.49895573  0.56606068  0.92293659     0.17710
H2491       H  0.55913029  0.63647425  0.93305062     0.17710
F2492       F  0.55761078  0.61705881  0.88767593    -0.20050
C2493       C  0.51216592  0.54022660  0.11424059    -0.21480
C2494       C  0.48743712  0.53402908  0.12059966    -0.09520
C2495       C  0.46823851  0.55169586  0.11687029     0.29330
C2496       C  0.47351303  0.57453695  0.10502557    -0.21480
C2497       C  0.49798131  0.58002049  0.09708373    -0.09540
C2498       C  0.51748145  0.56321095  0.10274198     0.29340
F2499       F  0.54123124  0.56793324  0.09481671    -0.20060
H2500       H  0.52707140  0.52665638  0.11679449     0.17710
H2501       H  0.45816317  0.58684071  0.09995625     0.17710
F2502       F  0.44402438  0.54568304  0.12209132    -0.20050
C2503       C  0.58159803  0.65719982  0.13613086    -0.21480
C2504       C  0.56653462  0.67251117  0.15136103    -0.09520
C2505       C  0.54547096  0.68434063  0.14093153     0.29330
C2506       C  0.53979374  0.68124612  0.11569222    -0.21480
C2507       C  0.55497967  0.66636199  0.10012494    -0.09540
C2508       C  0.57596461  0.65417452  0.11061867     0.29340
F2509       F  0.59080251  0.63913764  0.09641808    -0.20060
H2510       H  0.59816642  0.64829413  0.14378775     0.17710
H2511       H  0.52331028  0.69056076  0.10835118     0.17710
F2512       F  0.53032334  0.69901790  0.15521794    -0.20050
C2513       C  0.24376209  0.99354979  0.27077458    -0.21480
C2514       C  0.23679684  0.01332324  0.25475457    -0.09520
C2515       C  0.23110381  0.00745990  0.22955253     0.29330
C2516       C  0.23116211  0.98249234  0.22117907    -0.21480
C2517       C  0.23666611  0.96262090  0.23758762    -0.09540
C2518       C  0.24373847  0.96854386  0.26237798     0.29340
F2519       F  0.24992065  0.95012166  0.27881064    -0.20060
H2520       H  0.24842086  0.99732375  0.29016381     0.17710
H2521       H  0.22551205  0.97864314  0.20206816     0.17710
F2522       F  0.22395372  0.02561185  0.21320982    -0.20050
C2523       C  0.31989506  0.12064765  0.31501990    -0.21480
C2524       C  0.30676000  0.10655090  0.29695442    -0.09520
C2525       C  0.31661738  0.10553631  0.27247702     0.29330
C2526       C  0.33756334  0.12026751  0.26577376    -0.21480
C2527       C  0.34970020  0.13556057  0.28353111    -0.09540
C2528       C  0.34133192  0.13468025  0.30853141     0.29340
F2529       F  0.35207379  0.14968740  0.32607935    -0.20060
H2530       H  0.31229392  0.12248498  0.33376545     0.17710
H2531       H  0.34335938  0.12092950  0.24632385     0.17710
F2532       F  0.30421875  0.09269943  0.25432829    -0.20050
C2533       C  0.18795312  0.14855488  0.35732771    -0.21480
C2534       C  0.21178810  0.13723279  0.35696778    -0.09520
C2535       C  0.22951234  0.14441193  0.37502782     0.29330
C2536       C  0.22469367  0.16512141  0.39052246    -0.21480
C2537       C  0.20222726  0.17885637  0.38815416    -0.09540
C2538       C  0.18303994  0.16904483  0.37303122     0.29340
F2539       F  0.16125612  0.18187212  0.37005175    -0.20060
H2540       H  0.17399364  0.14321704  0.34355614     0.17710
H2541       H  0.23988981  0.17255425  0.40179750     0.17710
F2542       F  0.25277030  0.13406285  0.37506121    -0.20050
C2543       C  0.13000040  0.17242073  0.24131736    -0.21480
C2544       C  0.13733193  0.19631641  0.25006629    -0.09520
C2545       C  0.15732591  0.19799602  0.26717414     0.29330
C2546       C  0.17108276  0.17677352  0.27329687    -0.21480
C2547       C  0.16539495  0.15345828  0.26253267    -0.09540
C2548       C  0.14391266  0.15101466  0.24758338     0.29340
F2549       F  0.13776157  0.12856064  0.23724425    -0.20060
H2550       H  0.11448261  0.17049895  0.22836270     0.17710
H2551       H  0.18736910  0.17890535  0.28527337     0.17710
F2552       F  0.16527623  0.22036599  0.27624418    -0.20050
C2553       C  0.00098933  0.99350668  0.25998236    -0.21480
C2554       C  0.02427781  0.99784148  0.27180303    -0.09520
C2555       C  0.04636720  0.99258925  0.25837353     0.29330
C2556       C  0.04529366  0.98337312  0.23400900    -0.21480
C2557       C  0.02227829  0.97871996  0.22205497    -0.09540
C2558       C  0.99994830  0.98371090  0.23533027     0.29340
F2559       F  0.97733090  0.97975494  0.22436715    -0.20060
H2560       H  0.98369632  0.99722678  0.26997064     0.17710
H2561       H  0.06283525  0.97973524  0.22439585     0.17710
F2562       F  0.06929537  0.99677693  0.26866740    -0.20050
C2563       C  0.14766727  0.05309026  0.33623728    -0.21480
C2564       C  0.15293170  0.06012769  0.31149654    -0.09520
C2565       C  0.13269878  0.06331507  0.29463849     0.29330
C2566       C  0.10800538  0.05830414  0.30212833    -0.21480
C2567       C  0.10296230  0.04974318  0.32639758    -0.09540
C2568       C  0.12300766  0.04770699  0.34360241     0.29340
F2569       F  0.11882170  0.03989525  0.36746506    -0.20060
H2570       H  0.16273291  0.05092727  0.34966961     0.17710
H2571       H  0.09298974  0.05989963  0.28855488     0.17710
F2572       F  0.13672685  0.07113021  0.27075958    -0.20050
C2573       C  0.04360813  0.10562146  0.40637454    -0.21480
C2574       C  0.02993708  0.08286210  0.40763143    -0.09520
C2575       C  0.02480482  0.07268694  0.43142791     0.29330
C2576       C  0.03380169  0.08398801  0.45284866    -0.21480
C2577       C  0.04726875  0.10662918  0.45216737    -0.09540
C2578       C  0.05181245  0.11779607  0.42862667     0.29340
F2579       F  0.06500670  0.13953247  0.42704811    -0.20060
H2580       H  0.04798053  0.11383837  0.38833550     0.17710
H2581       H  0.03032738  0.07429764  0.47032767     0.17710
F2582       F  0.01205571  0.05076680  0.43436752    -0.20050
C2583       C  0.09137800  0.51484163  0.56458837    -0.21480
C2584       C  0.09235887  0.49911767  0.58567969    -0.09520
C2585       C  0.10782930  0.47789736  0.58510898     0.29330
C2586       C  0.12018022  0.47129665  0.56285306    -0.21480
C2587       C  0.11717606  0.48572296  0.54085336    -0.09540
C2588       C  0.10374517  0.50837342  0.54244134     0.29340
F2589       F  0.10118322  0.52355360  0.52226911    -0.20060
H2590       H  0.07948220  0.53133267  0.56472404     0.17710
H2591       H  0.13063033  0.45387979  0.56242291     0.17710
F2592       F  0.10884195  0.46217610  0.60508655    -0.20050
C2593       C  0.95178347  0.51478990  0.59880053    -0.21480
C2594       C  0.95102628  0.52814676  0.62140514    -0.09520
C2595       C  0.92743044  0.53321549  0.63224478     0.29330
C2596       C  0.90516493  0.52546271  0.61980121    -0.21480
C2597       C  0.90653752  0.51184434  0.59709433    -0.09540
C2598       C  0.93036320  0.50632683  0.58719989     0.29340
F2599       F  0.93335604  0.49373095  0.56525407    -0.20060
H2600       H  0.96932817  0.51116282  0.58927701     0.17710
H2601       H  0.88706622  0.53009883  0.62776256     0.17710
F2602       F  0.92585615  0.54652880  0.65385031    -0.20050
C2603       C  0.13106182  0.55607819  0.70761885    -0.21480
C2604       C  0.14849483  0.55710643  0.68775641    -0.09520
C2605       C  0.13967348  0.55707612  0.66295167     0.29330
C2606       C  0.11394947  0.55475988  0.65831303    -0.21480
C2607       C  0.09691546  0.55269598  0.67828919    -0.09540
C2608       C  0.10551195  0.55376837  0.70293640     0.29340
F2609       F  0.08926516  0.55152810  0.72241882    -0.20060
H2610       H  0.13720182  0.55673014  0.72695262     0.17710
H2611       H  0.10741485  0.55323428  0.63914325     0.17710
F2612       F  0.15582989  0.55816528  0.64331095    -0.20050
C2613       C  0.11965231  0.39664852  0.02127555    -0.21480
C2614       C  0.10321903  0.38799151  0.03994453    -0.09520
C2615       C  0.10389755  0.39931863  0.06376264     0.29330
C2616       C  0.11808718  0.42102975  0.06768939    -0.21480
C2617       C  0.13193233  0.43165591  0.04803307    -0.09540
C2618       C  0.13393365  0.41847986  0.02525983     0.29340
F2619       F  0.14676048  0.42865726  0.00575735    -0.20060
H2620       H  0.11917159  0.38839729  0.00272480     0.17710
H2621       H  0.11597889  0.43111131  0.08520580     0.17710
F2622       F  0.08848242  0.39111986  0.08232615    -0.20050
C2623       C  0.18459836  0.81930130  0.14489164    -0.21480
C2624       C  0.20849489  0.83045416  0.14555945    -0.09520
C2625       C  0.22709261  0.82156655  0.12906688     0.29330
C2626       C  0.22252750  0.80013754  0.11430310    -0.21480
C2627       C  0.19938081  0.78747341  0.11570047    -0.09540
C2628       C  0.18002795  0.79809557  0.13008412     0.29340
F2629       F  0.15760823  0.78613650  0.13216905    -0.20060
H2630       H  0.17002381  0.82574626  0.15751200     0.17710
H2631       H  0.23797058  0.79182905  0.10403267     0.17710
F2632       F  0.25056737  0.83145709  0.12965944    -0.20050
C2633       C  0.17003479  0.62346411  0.07960882    -0.21480
C2634       C  0.19017809  0.63518713  0.06715155    -0.09520
C2635       C  0.20572359  0.62058294  0.05154356     0.29330
C2636       C  0.20108417  0.59512592  0.04834303    -0.21480
C2637       C  0.18092073  0.58339041  0.06047400    -0.09540
C2638       C  0.16542836  0.59768009  0.07636217     0.29340
F2639       F  0.14532690  0.58703466  0.08783220    -0.20060
H2640       H  0.15805991  0.63417495  0.09203985     0.17710
H2641       H  0.21311155  0.58457760  0.03579802     0.17710
F2642       F  0.22538083  0.63087452  0.03898737    -0.20050
C2643       C  0.59510931  0.09649959  0.48895552    -0.21480
C2644       C  0.59428546  0.07943383  0.50881255    -0.09520
C2645       C  0.57324002  0.07875686  0.52463234     0.29330
C2646       C  0.55199995  0.09257069  0.51874748    -0.21480
C2647       C  0.55126689  0.10662764  0.49660266    -0.09540
C2648       C  0.57363043  0.11013619  0.48275616     0.29340
F2649       F  0.57410034  0.12461993  0.46183036    -0.20060
H2650       H  0.61133015  0.09727758  0.47672722     0.17710
H2651       H  0.53532346  0.09005270  0.53011164     0.17710
F2652       F  0.57215373  0.06263444  0.54422956    -0.20050
C2653       C  0.62551527  0.92604170  0.51755663    -0.21480
C2654       C  0.63225378  0.93362229  0.54184492    -0.09520
C2655       C  0.62628967  0.91799963  0.56218245     0.29330
C2656       C  0.61145293  0.89649907  0.55847838    -0.21480
C2657       C  0.60273681  0.89033702  0.53440752    -0.09540
C2658       C  0.61067780  0.90469355  0.51383883     0.29340
F2659       F  0.60140992  0.90002009  0.49059368    -0.20060
H2660       H  0.62947187  0.93802603  0.50184663     0.17710
H2661       H  0.60510920  0.88590392  0.57452529     0.17710
F2662       F  0.63249418  0.92495586  0.58583551    -0.20050
C2663       C  0.71218074  0.11775175  0.56630990    -0.21480
C2664       C  0.69262779  0.13523848  0.56986929    -0.09520
C2665       C  0.66766474  0.12653394  0.56925527     0.29330
C2666       C  0.66260071  0.10105537  0.56471067    -0.21480
C2667       C  0.68225176  0.08398241  0.56060375    -0.09540
C2668       C  0.70707250  0.09247634  0.56156314     0.29340
F2669       F  0.72637443  0.07631399  0.55773593    -0.20060
H2670       H  0.73162866  0.12363125  0.56705583     0.17710
H2671       H  0.64328460  0.09479630  0.56344857     0.17710
F2672       F  0.64819167  0.14263167  0.57229797    -0.20050
C2673       C  0.26824210  0.49427025  0.01195688    -0.21480
C2674       C  0.27268019  0.49549611  0.98593547    -0.09520
C2675       C  0.25185197  0.49548240  0.96973513     0.29330
C2676       C  0.22742888  0.49617869  0.97944789    -0.21480
C2677       C  0.22306578  0.49700700  0.00549064    -0.09540
C2678       C  0.24381704  0.49505938  0.02167470     0.29340
F2679       F  0.24074583  0.49538334  0.04692053    -0.20060
H2680       H  0.28379067  0.49402736  0.02500711     0.17710
H2681       H  0.21191439  0.49733756  0.96640750     0.17710
F2682       F  0.25496052  0.49625483  0.94450715    -0.20050
C2683       C  0.42352276  0.58250210  0.97324541    -0.21480
C2684       C  0.40505267  0.57551257  0.99052519    -0.09520
C2685       C  0.40565321  0.58518373  0.01493586     0.29330
C2686       C  0.42610230  0.59967447  0.02267616    -0.21480
C2687       C  0.44597370  0.60460952  0.00604958    -0.09540
C2688       C  0.44365460  0.59739024  0.98079370     0.29340
F2689       F  0.46141834  0.60365617  0.96370816    -0.20060
H2690       H  0.42301326  0.57532210  0.95424475     0.17710
H2691       H  0.42738139  0.60515287  0.04218550     0.17710
F2692       F  0.38787427  0.57847927  0.03189816    -0.20050
C2693       C  0.41074320  0.55035728  0.88864294    -0.21480
C2694       C  0.40066156  0.52596953  0.88911382    -0.09520
C2695       C  0.41104069  0.50762751  0.87323828     0.29330
C2696       C  0.43296598  0.51297567  0.85950671    -0.21480
C2697       C  0.44467732  0.53659258  0.86149975    -0.09540
C2698       C  0.43255183  0.55564131  0.87504823     0.29340
F2699       F  0.44357779  0.57848143  0.87771770    -0.20060
H2700       H  0.40318944  0.56470915  0.90090643     0.17710
H2701       H  0.44239117  0.49780842  0.84979838     0.17710
F2702       F  0.40218415  0.48372335  0.87373071    -0.20050
C2703       C  0.39989921  0.46144934  0.03495031    -0.21480
C2704       C  0.38427038  0.48264777  0.03576473    -0.09520
C2705       C  0.38163910  0.49582115  0.05848230     0.29330
C2706       C  0.39665412  0.48967935  0.07890768    -0.21480
C2707       C  0.41434710  0.47027297  0.07713280    -0.09540
C2708       C  0.41482591  0.45522192  0.05543296     0.29340
F2709       F  0.43074468  0.43545499  0.05329448    -0.20060
H2710       H  0.40184992  0.45059134  0.01789278     0.17710
H2711       H  0.39533030  0.50106570  0.09567812     0.17710
F2712       F  0.36595393  0.51577483  0.06053223    -0.20050
C2713       C  0.39095425  0.39468413  0.94013327    -0.21480
C2714       C  0.39250902  0.38900308  0.96581082    -0.09520
C2715       C  0.37905010  0.40382812  0.98294637     0.29330
C2716       C  0.36572569  0.42492693  0.97465466    -0.21480
C2717       C  0.36637414  0.43211166  0.94932920    -0.09540
C2718       C  0.37842629  0.41636113  0.93197409     0.29340
F2719       F  0.37995704  0.42313801  0.90750800    -0.20060
H2720       H  0.40151667  0.38373533  0.92665539     0.17710
H2721       H  0.35701395  0.43706981  0.98842297     0.17710
F2722       F  0.38022105  0.39890030  0.00786940    -0.20050
C2723       C  0.23430875  0.72044504  0.97783619    -0.21480
C2724       C  0.26024602  0.72135955  0.97336653    -0.09520
C2725       C  0.27663724  0.72536212  0.99351891     0.29330
C2726       C  0.26721990  0.72606768  0.01802488    -0.21480
C2727       C  0.24134059  0.72301912  0.02270533    -0.09540
C2728       C  0.22483908  0.72148679  0.00217704     0.29340
F2729       F  0.19969982  0.71909907  0.00554079    -0.20060
H2730       H  0.22136014  0.71768350  0.96242625     0.17710
H2731       H  0.28037965  0.72751362  0.03341325     0.17710
F2732       F  0.30181112  0.72628585  0.98977048    -0.20050
C2733       C  0.32467349  0.62062280  0.91019013    -0.21480
C2734       C  0.30775610  0.63427359  0.92499775    -0.09520
C2735       C  0.29548936  0.62230969  0.94494122     0.29330
C2736       C  0.30013148  0.59705501  0.95007653    -0.21480
C2737       C  0.31679871  0.58306863  0.93515859    -0.09540
C2738       C  0.32929757  0.59519215  0.91524200     0.29340
F2739       F  0.34615198  0.58263598  0.90088238    -0.20060
H2740       H  0.33373027  0.62948217  0.89429395     0.17710
H2741       H  0.29035746  0.58832600  0.96561362     0.17710
F2742       F  0.27833197  0.63490137  0.95893274    -0.20050
C2743       C  0.27502611  0.64978642  0.81003566    -0.21480
C2744       C  0.25719021  0.65380256  0.82899391    -0.09520
C2745       C  0.23461025  0.64007773  0.82855842     0.29330
C2746       C  0.22908519  0.62460898  0.80829962    -0.21480
C2747       C  0.24586348  0.62245247  0.78812153    -0.09540
C2748       C  0.26955513  0.63400263  0.78986241     0.29340
F2749       F  0.28715454  0.63064160  0.77185636    -0.20060
H2750       H  0.29293404  0.65943885  0.81043537     0.17710
H2751       H  0.21081643  0.61568027  0.80770132     0.17710
F2752       F  0.21698764  0.64288864  0.84672535    -0.20050
C2753       C  0.84562172  0.10800907  0.20740212    -0.21480
C2754       C  0.84381589  0.13418195  0.21108868    -0.09520
C2755       C  0.82054287  0.14582579  0.20697788     0.29330
C2756       C  0.80012316  0.13220548  0.19860372    -0.21480
C2757       C  0.80069021  0.10594974  0.19802764    -0.09540
C2758       C  0.82380474  0.09373750  0.20197607     0.29340
F2759       F  0.82486551  0.06830217  0.20252171    -0.20060
H2760       H  0.86320698  0.09849010  0.21090067     0.17710
H2761       H  0.78246705  0.14208435  0.19657741     0.17710
F2762       F  0.81648808  0.17008967  0.21343133    -0.20050
C2763       C  0.60880971  0.03311580  0.19726668    -0.21480
C2764       C  0.59513438  0.04818378  0.18050783    -0.09520
C2765       C  0.60730036  0.06823094  0.16834166     0.29330
C2766       C  0.63267756  0.07307582  0.17313806    -0.21480
C2767       C  0.64617586  0.05775627  0.18970081    -0.09540
C2768       C  0.63405902  0.03791361  0.20192518     0.29340
F2769       F  0.64645133  0.02379193  0.21909454    -0.20060
H2770       H  0.59990013  0.01749569  0.20679028     0.17710
H2771       H  0.64172139  0.08900970  0.16427737     0.17710
F2772       F  0.59496350  0.08257205  0.15133432    -0.20050
C2773       C  0.24890668  0.97232757  0.52258917    -0.21480
C2774       C  0.22808773  0.97434040  0.50663354    -0.09520
C2775       C  0.23250494  0.97834259  0.48074954     0.29330
C2776       C  0.25704365  0.97810594  0.47105639    -0.21480
C2777       C  0.27756629  0.97374207  0.48685952    -0.09540
C2778       C  0.27330263  0.97192534  0.51288117     0.29340
F2779       F  0.29276328  0.96837315  0.52889047    -0.20060
H2780       H  0.24631283  0.96952803  0.54252606     0.17710
H2781       H  0.25981273  0.97948700  0.45099373     0.17710
F2782       F  0.21311938  0.98102125  0.46449755    -0.20050
C2783       C  0.11813486  0.98120096  0.43823399    -0.21480
C2784       C  0.11390939  0.99247011  0.46162649    -0.09520
C2785       C  0.09504852  0.01090690  0.46373812     0.29330
C2786       C  0.07918466  0.01583888  0.44352037    -0.21480
C2787       C  0.08186650  0.00261687  0.42091384    -0.09540
C2788       C  0.10236350  0.98620120  0.41803312     0.29340
F2789       F  0.10656916  0.97400542  0.39609441    -0.20060
H2790       H  0.13277733  0.96730700  0.43591505     0.17710
H2791       H  0.06394745  0.02903215  0.44606993     0.17710
F2792       F  0.09057430  0.02280073  0.48579382    -0.20050
C2793       C  0.12521769  0.05025060  0.57436836    -0.21480
C2794       C  0.13940498  0.03916545  0.55525001    -0.09520
C2795       C  0.14254916  0.05212200  0.53247544     0.29330
C2796       C  0.12888161  0.07416142  0.52783771    -0.21480
C2797       C  0.11201377  0.08328167  0.54587846    -0.09540
C2798       C  0.11174256  0.07222816  0.56983269     0.29340
F2799       F  0.09599097  0.08091053  0.58785765    -0.20060
H2800       H  0.12234101  0.04039660  0.59190758     0.17710
H2801       H  0.12915922  0.08219465  0.50919191     0.17710
F2802       F  0.15574107  0.04151655  0.51346410    -0.20050
C2803       C  0.26625404  0.75636104  0.51586046    -0.21480
C2804       C  0.24071821  0.75199013  0.52067414    -0.09520
C2805       C  0.22500780  0.74465110  0.50085363     0.29330
C2806       C  0.23441950  0.74369503  0.47635236    -0.21480
C2807       C  0.25969650  0.74960238  0.47130135    -0.09540
C2808       C  0.27578002  0.75496135  0.49152941     0.29340
F2809       F  0.30031597  0.76069218  0.48772947    -0.20060
H2810       H  0.27876442  0.76170872  0.53095036     0.17710
H2811       H  0.22163275  0.73942387  0.46116625     0.17710
F2812       F  0.20023061  0.74026276  0.50483177    -0.20050
C2813       C  0.18706601  0.84127852  0.54637070    -0.21480
C2814       C  0.18948490  0.83510448  0.57176545    -0.09520
C2815       C  0.18693363  0.85406053  0.58991259     0.29330
C2816       C  0.18268647  0.87889548  0.58270972    -0.21480
C2817       C  0.18137490  0.88544441  0.55725246    -0.09540
C2818       C  0.18321857  0.86624382  0.53907638     0.29340
F2819       F  0.18144269  0.87150815  0.51425809    -0.20060
H2820       H  0.18937562  0.82696275  0.53213118     0.17710
H2821       H  0.18092670  0.89310680  0.59712466     0.17710
F2822       F  0.18899823  0.84856588  0.61466854    -0.20050
C2823       C  0.22289244  0.65975000  0.60509098    -0.21480
C2824       C  0.20244070  0.67630055  0.60689152    -0.09520
C2825       C  0.18222119  0.66986389  0.62256290     0.29330
C2826       C  0.18447514  0.64967318  0.63916733    -0.21480
C2827       C  0.20654681  0.63529068  0.63982720    -0.09540
C2828       C  0.22492386  0.63923418  0.62133745     0.29340
F2829       F  0.24643870  0.62562968  0.62129015    -0.20060
H2830       H  0.23875943  0.66449333  0.59328243     0.17710
H2831       H  0.16992953  0.64670018  0.65305746     0.17710
F2832       F  0.16218100  0.68540278  0.62485081    -0.20050
C2833       C  0.77553713  0.22313263  0.49152112    -0.21480
C2834       C  0.75827683  0.22086566  0.47174551    -0.09520
C2835       C  0.73242858  0.22146379  0.47739927     0.29330
C2836       C  0.72428431  0.22214914  0.50231583    -0.21480
C2837       C  0.74159423  0.22227881  0.52217551    -0.09540
C2838       C  0.76739096  0.22385368  0.51643966     0.29340
F2839       F  0.78492914  0.22475627  0.53484664    -0.20060
H2840       H  0.79552296  0.22306441  0.48782983     0.17710
H2841       H  0.70432080  0.22125505  0.50603206     0.17710
F2842       F  0.71490328  0.21998254  0.45901578    -0.20050
C2843       C  0.82292216  0.29408878  0.36486058    -0.21480
C2844       C  0.80356071  0.28451109  0.37986684    -0.09520
C2845       C  0.78172074  0.29890551  0.38334376     0.29330
C2846       C  0.77815573  0.32103452  0.36945609    -0.21480
C2847       C  0.79632820  0.32878590  0.35200119    -0.09540
C2848       C  0.81942415  0.31607970  0.35108767     0.29340
F2849       F  0.83755526  0.32341165  0.33474544    -0.20060
H2850       H  0.83974615  0.28311528  0.36173445     0.17710
H2851       H  0.76014406  0.33040023  0.37024938     0.17710
F2852       F  0.76251314  0.28980367  0.39739295    -0.20050
C2853       C  0.87267729  0.16618230  0.31165092    -0.21480
C2854       C  0.88621687  0.18681320  0.30248961    -0.09520
C2855       C  0.88772711  0.20872325  0.31722554     0.29330
C2856       C  0.87299553  0.21116164  0.33883388    -0.21480
C2857       C  0.85634756  0.19194353  0.34565191    -0.09540
C2858       C  0.85756383  0.16878841  0.33295630     0.29340
F2859       F  0.84204631  0.14964312  0.33952281    -0.20060
H2860       H  0.87105035  0.14924439  0.30051176     0.17710
H2861       H  0.87233408  0.22913560  0.34832576     0.17710
F2862       F  0.90082392  0.22894614  0.30886369    -0.20050
C2863       C  0.77537150  0.13989633  0.31679042    -0.21480
C2864       C  0.76035306  0.13938023  0.33832695    -0.09520
C2865       C  0.73980486  0.12287775  0.33954480     0.29330
C2866       C  0.73267463  0.10935153  0.31814357    -0.21480
C2867       C  0.74606356  0.11240232  0.29567353    -0.09540
C2868       C  0.76835347  0.12648611  0.29559490     0.29340
F2869       F  0.78196147  0.12926248  0.27423438    -0.20060
H2870       H  0.79139134  0.15241951  0.31568753     0.17710
H2871       H  0.71535908  0.09867141  0.31840980     0.17710
F2872       F  0.72498586  0.12221931  0.36022149    -0.20050
C2873       C  0.77256950  0.00114928  0.51541380    -0.21480
C2874       C  0.77781640  0.99745286  0.48986501    -0.09520
C2875       C  0.75781202  0.99218876  0.47353300     0.29330
C2876       C  0.73296563  0.99258009  0.48237343    -0.21480
C2877       C  0.72757125  0.99783593  0.50772244    -0.09540
C2878       C  0.74784815  0.00105654  0.52436749     0.29340
F2879       F  0.74386319  0.00590602  0.54901604    -0.20060
H2880       H  0.78768803  0.00515310  0.52838414     0.17710
H2881       H  0.71785226  0.98990781  0.46907896     0.17710
F2882       F  0.76206963  0.98879404  0.44868923    -0.20050
C2883       C  0.92849027  0.06943659  0.51485474    -0.21480
C2884       C  0.92415530  0.06453417  0.48940377    -0.09520
C2885       C  0.94028794  0.07496995  0.47129604     0.29330
C2886       C  0.96101556  0.08928758  0.47879535    -0.21480
C2887       C  0.96558717  0.09355661  0.50434100    -0.09540
C2888       C  0.94905485  0.08363772  0.52231929     0.29340
F2889       F  0.95385648  0.08594860  0.54720882    -0.20060
H2890       H  0.91661913  0.06119852  0.52916484     0.17710
H2891       H  0.97373524  0.09665350  0.46474243     0.17710
F2892       F  0.93613836  0.07119292  0.44650433    -0.20050
C2893       C  0.90977724  0.99981580  0.37378565    -0.21480
C2894       C  0.90087298  0.01838454  0.39008934    -0.09520
C2895       C  0.91134218  0.04264369  0.38871044     0.29330
C2896       C  0.93255469  0.04718578  0.37361056    -0.21480
C2897       C  0.94338943  0.02761161  0.35963722    -0.09540
C2898       C  0.93049456  0.00449060  0.35831718     0.29340
F2899       F  0.94025856  0.98518057  0.34487622    -0.20060
H2900       H  0.90202807  0.98100758  0.37458137     0.17710
H2901       H  0.94230124  0.06496008  0.37541680     0.17710
F2902       F  0.90311179  0.06099328  0.40431926    -0.20050
C2903       C  0.84320824  0.10104375  0.43376701    -0.21480
C2904       C  0.82472342  0.08317750  0.43959551    -0.09520
C2905       C  0.79942891  0.09009437  0.43953439     0.29330
C2906       C  0.79278400  0.11487038  0.43435057    -0.21480
C2907       C  0.81125319  0.13305872  0.42891151    -0.09540
C2908       C  0.83659014  0.12575009  0.42812041     0.29340
F2909       F  0.85499713  0.14246018  0.42246792    -0.20060
H2910       H  0.86287220  0.09588932  0.43403562     0.17710
H2911       H  0.77308628  0.11982659  0.43476294     0.17710
F2912       F  0.78133234  0.07330328  0.44593559    -0.20050
C2913       C  0.48386189  0.25375563  0.48261239    -0.21480
C2914       C  0.50945026  0.26004381  0.48301001    -0.09520
C2915       C  0.52732801  0.24060740  0.48437051     0.29330
C2916       C  0.51971803  0.21557514  0.48313151    -0.21480
C2917       C  0.49424312  0.20936043  0.48056759    -0.09540
C2918       C  0.47625009  0.22870946  0.48140508     0.29340
F2919       F  0.45134404  0.22367632  0.47956703    -0.20060
H2920       H  0.46966409  0.26826587  0.48186289     0.17710
H2921       H  0.53396440  0.20109439  0.48296311     0.17710
F2922       F  0.55228354  0.24563896  0.48543396    -0.20050
C2923       C  0.52062094  0.22695543  0.25523677    -0.21480
C2924       C  0.52596161  0.25208646  0.26179273    -0.09520
C2925       C  0.50565440  0.26833824  0.26641615     0.29330
C2926       C  0.48100396  0.25918336  0.26632181    -0.21480
C2927       C  0.47578280  0.23375367  0.26133379    -0.09540
C2928       C  0.49581136  0.21787783  0.25485058     0.29340
F2929       F  0.49167882  0.19315952  0.25023814    -0.20060
H2930       H  0.53577696  0.21395936  0.25149365     0.17710
H2931       H  0.46593199  0.27184488  0.27138028     0.17710
F2932       F  0.50957615  0.29268218  0.27287147    -0.20050
C2933       C  0.68808386  0.21139854  0.35584173    -0.21480
C2934       C  0.70699825  0.22900138  0.36139179    -0.09520
C2935       C  0.70331505  0.25435871  0.35506889     0.29330
C2936       C  0.68181516  0.26152545  0.34191121    -0.21480
C2937       C  0.66379736  0.24356642  0.33509149    -0.09540
C2938       C  0.66675843  0.21855528  0.34252727     0.29340
F2939       F  0.65020918  0.20070971  0.33492413    -0.20060
H2940       H  0.69061486  0.19169991  0.36020829     0.17710
H2941       H  0.67987535  0.28083557  0.33581374     0.17710
F2942       F  0.72089004  0.27195407  0.36066962    -0.20050
C2943       C  0.66824431  0.34200489  0.31452480    -0.21480
C2944       C  0.65734167  0.34374239  0.29062610    -0.09520
C2945       C  0.66733930  0.36088444  0.27325773     0.29330
C2946       C  0.68981981  0.37354069  0.27873099    -0.21480
C2947       C  0.70240336  0.36907227  0.30143888    -0.09540
C2948       C  0.69068161  0.35441962  0.31987509     0.29340
F2949       F  0.70253595  0.34959814  0.34185840    -0.20060
H2950       H  0.66086918  0.32879089  0.32812165     0.17710
H2951       H  0.69890657  0.38432840  0.26408339     0.17710
F2952       F  0.65753718  0.36259949  0.24986057    -0.20050
C2953       C  0.65137438  0.19877841  0.22393870    -0.21480
C2954       C  0.63629953  0.19851261  0.24555535    -0.09520
C2955       C  0.63445720  0.17622138  0.25962951     0.29330
C2956       C  0.64958574  0.15577258  0.25378116    -0.21480
C2957       C  0.66671959  0.15705644  0.23383576    -0.09540
C2958       C  0.66649321  0.17824489  0.21805441     0.29340
F2959       F  0.68184172  0.17982151  0.19779955    -0.20060
H2960       H  0.65277227  0.21550397  0.21246061     0.17710
H2961       H  0.64881300  0.13941330  0.26581670     0.17710
F2962       F  0.61952582  0.17468828  0.28019968    -0.20050
C2963       C  0.54798437  0.29801947  0.35570069    -0.21480
C2964       C  0.57240841  0.30236665  0.34732437    -0.09520
C2965       C  0.59058893  0.31122705  0.36426303     0.29330
C2966       C  0.58431025  0.31505086  0.38955171    -0.21480
C2967       C  0.55982453  0.31013695  0.39815030    -0.09540
C2968       C  0.54156437  0.30211428  0.38064043     0.29340
F2969       F  0.51735094  0.29801186  0.38744266    -0.20060
H2970       H  0.53383622  0.29106241  0.34286037     0.17710
H2971       H  0.59863358  0.32151124  0.40242065     0.17710
F2972       F  0.61462782  0.31487575  0.35664887    -0.20050
C2973       C  0.27147869  0.47630052  0.48106125    -0.21480
C2974       C  0.27607186  0.47613383  0.50702431    -0.09520
C2975       C  0.25556185  0.47899938  0.52344835     0.29330
C2976       C  0.23104919  0.47954204  0.51412207    -0.21480
C2977       C  0.22633651  0.47728140  0.48828657    -0.09540
C2978       C  0.24694369  0.47687138  0.47172455     0.29340
F2979       F  0.24351245  0.47519806  0.44658253    -0.20060
H2980       H  0.28683304  0.47448683  0.46787875     0.17710
H2981       H  0.21565228  0.48031569  0.52736150     0.17710
F2982       F  0.25894723  0.47981654  0.54863755    -0.20050
C2983       C  0.41047566  0.38065242  0.48897249    -0.21480
C2984       C  0.41016119  0.39503922  0.51088229    -0.09520
C2985       C  0.43040068  0.39354824  0.52765421     0.29330
C2986       C  0.45179151  0.37989750  0.52133184    -0.21480
C2987       C  0.45344143  0.36777411  0.49803508    -0.09540
C2988       C  0.43196739  0.36705966  0.48248089     0.29340
F2989       F  0.43237271  0.35514475  0.45999934    -0.20060
H2990       H  0.39502938  0.38173579  0.47583455     0.17710
H2991       H  0.46773333  0.38038753  0.53390910     0.17710
F2992       F  0.43020865  0.40687276  0.54933821    -0.20050
C2993       C  0.22835178  0.24893952  0.51992506    -0.21480
C2994       C  0.25443436  0.24971814  0.52423642    -0.09520
C2995       C  0.27079099  0.24797357  0.50356261     0.29330
C2996       C  0.26124833  0.24799676  0.47925912    -0.21480
C2997       C  0.23532487  0.24935258  0.47497247    -0.09540
C2998       C  0.21881966  0.24866715  0.49546760     0.29340
F2999       F  0.19364649  0.25006624  0.49192063    -0.20060
H3000       H  0.21527436  0.24999931  0.53543311     0.17710
H3001       H  0.27426119  0.24822223  0.46364075     0.17710
F3002       F  0.29607477  0.24787366  0.50660215    -0.20050
C3003       C  0.21266468  0.23690553  0.66620656    -0.21480
C3004       C  0.20979224  0.23869563  0.64033305    -0.09520
C3005       C  0.18577733  0.23692198  0.62964171     0.29330
C3006       C  0.16478317  0.23309116  0.64510827    -0.21480
C3007       C  0.16769745  0.23193994  0.67128674    -0.09540
C3008       C  0.19202681  0.23403884  0.68159972     0.29340
F3009       F  0.19617339  0.23392541  0.70670885    -0.20060
H3010       H  0.23100539  0.23907897  0.67474010     0.17710
H3011       H  0.14635432  0.23145273  0.63673049     0.17710
F3012       F  0.18272269  0.23886416  0.60447982    -0.20050
C3013       C  0.35407320  0.24818966  0.66866576    -0.21480
C3014       C  0.35582323  0.26638943  0.65007986    -0.09520
C3015       C  0.37117673  0.28757279  0.65416117     0.29330
C3016       C  0.38293287  0.29114680  0.67764112    -0.21480
C3017       C  0.37828312  0.27421453  0.69735477    -0.09540
C3018       C  0.36388541  0.25261515  0.69222663     0.29340
F3019       F  0.35592057  0.23735664  0.71066790    -0.20060
H3020       H  0.34160323  0.23224408  0.66623974     0.17710
H3021       H  0.39333485  0.30827559  0.68114061     0.17710
F3022       F  0.37293694  0.30569076  0.63639230    -0.20050
C3023       C  0.30043709  0.34621704  0.54523081    -0.21480
C3024       C  0.30977651  0.33525465  0.56709724    -0.09520
C3025       C  0.32337928  0.34995568  0.58422460     0.29330
C3026       C  0.32734253  0.37551113  0.57944195    -0.21480
C3027       C  0.31792250  0.38657182  0.55746508    -0.09540
C3028       C  0.30457069  0.37150057  0.54026008     0.29340
F3029       F  0.29521456  0.38110973  0.51864109    -0.20060
H3030       H  0.28958450  0.33516007  0.53205601     0.17710
H3031       H  0.33791056  0.38657873  0.59281369     0.17710
F3032       F  0.33171446  0.33991645  0.60605700    -0.20050
C3033       C  0.47305924  0.50987080  0.25467029    -0.21480
C3034       C  0.48238937  0.49425189  0.27369510    -0.09520
C3035       C  0.49105514  0.47010881  0.26721511     0.29330
C3036       C  0.48934594  0.46155634  0.24237785    -0.21480
C3037       C  0.47846358  0.47667682  0.22375198    -0.09540
C3038       C  0.47086284  0.50118209  0.23007946     0.29340
F3039       F  0.46069555  0.51662891  0.21259453    -0.20060
H3040       H  0.46613857  0.52847656  0.25905442     0.17710
H3041       H  0.49538036  0.44265032  0.23798076     0.17710
F3042       F  0.50055571  0.45454580  0.28495175    -0.20050
C3043       C  0.52275227  0.44340292  0.40256968    -0.21480
C3044       C  0.50557665  0.44261741  0.38273614    -0.09520
C3045       C  0.49505615  0.41933294  0.37566015     0.29330
C3046       C  0.49926369  0.39796185  0.39028930    -0.21480
C3047       C  0.51367600  0.39982179  0.41211033    -0.09540
C3048       C  0.52651531  0.42230215  0.41738511     0.29340
F3049       F  0.54129812  0.42443986  0.43797000    -0.20060
H3050       H  0.53139830  0.46093773  0.40822317     0.17710
H3051       H  0.48959434  0.38063423  0.38577853     0.17710
F3052       F  0.47919549  0.41764752  0.35584363    -0.20050
C3053       C  0.39499101  0.48221130  0.41451253    -0.21480
C3054       C  0.41737414  0.49585373  0.41645793    -0.09520
C3055       C  0.42378402  0.50706244  0.43947979     0.29330
C3056       C  0.40930327  0.50267426  0.46069924    -0.21480
C3057       C  0.38845623  0.48667238  0.45950268    -0.09540
C3058       C  0.38060628  0.47747225  0.43596389     0.29340
F3059       F  0.35988847  0.46276739  0.43390279    -0.20060
H3060       H  0.38959835  0.47378062  0.39684060     0.17710
H3061       H  0.41560877  0.51028314  0.47844242     0.17710
F3062       F  0.44488190  0.52119885  0.44182051    -0.20050
C3063       C  0.25130594  0.49485095  0.26739918    -0.21480
C3064       C  0.26388628  0.51282739  0.25268613    -0.09520
C3065       C  0.27364165  0.50549235  0.22925067     0.29330
C3066       C  0.27138105  0.48078846  0.22112269    -0.21480
C3067       C  0.25989600  0.46253758  0.23621211    -0.09540
C3068       C  0.24931331  0.46983879  0.25925755     0.29340
F3069       F  0.23750784  0.45277597  0.27403699    -0.20060
H3070       H  0.24364016  0.50000514  0.28548062     0.17710
H3071       H  0.28016643  0.47562317  0.20354683     0.17710
F3072       F  0.28716998  0.52164295  0.21488569    -0.20050
C3073       C  0.31758440  0.65035896  0.35183553    -0.21480
C3074       C  0.29393973  0.63881107  0.35039136    -0.09520
C3075       C  0.27493872  0.64627664  0.36707740     0.29330
C3076       C  0.27853741  0.66745042  0.38224856    -0.21480
C3077       C  0.30106566  0.68108889  0.38094894    -0.09540
C3078       C  0.32119482  0.67132137  0.36710362     0.29340
F3079       F  0.34308850  0.68427832  0.36539975    -0.20060
H3080       H  0.33251565  0.64470773  0.33925129     0.17710
H3081       H  0.26264194  0.67506631  0.39237430     0.17710
F3082       F  0.25182525  0.63558872  0.36601705    -0.20050
C3083       C  0.27607194  0.62119951  0.17983977    -0.21480
C3084       C  0.25931003  0.61857300  0.20006883    -0.09520
C3085       C  0.23409694  0.62560924  0.19676780     0.29330
C3086       C  0.22673237  0.63799692  0.17494602    -0.21480
C3087       C  0.24415769  0.64283143  0.15587070    -0.09540
C3088       C  0.26855923  0.63330368  0.15784600     0.29340
F3089       F  0.28580496  0.63815057  0.13974762    -0.20060
H3090       H  0.29553483  0.61569595  0.18175056     0.17710
H3091       H  0.20781746  0.64531811  0.17362391     0.17710
F3092       F  0.21682671  0.62155458  0.21498416    -0.20050
C3093       C  0.36382032  0.53624932  0.29490561    -0.21480
C3094       C  0.34945723  0.55260653  0.30974476    -0.09520
C3095       C  0.36104673  0.56483565  0.33012050     0.29330
C3096       C  0.38656960  0.56066212  0.33528243    -0.21480
C3097       C  0.40068512  0.54416943  0.32032019    -0.09540
C3098       C  0.38902297  0.53207439  0.30004487     0.29340
F3099       F  0.40211801  0.51627919  0.28494239    -0.20060
H3100       H  0.35559108  0.52679011  0.27891653     0.17710
H3101       H  0.39513897  0.56981226  0.35126780     0.17710
F3102       F  0.34799653  0.58123238  0.34457089    -0.20050
C3103       C  0.47213672  0.72927864  0.51504321    -0.21480
C3104       C  0.48942838  0.70959654  0.51230424    -0.09520
C3105       C  0.51505109  0.71560746  0.50934297     0.29330
C3106       C  0.52318754  0.74054024  0.51099204    -0.21480
C3107       C  0.50608746  0.76005132  0.51563839    -0.09540
C3108       C  0.48026460  0.75419938  0.51673183     0.29340
F3109       F  0.46281635  0.77233472  0.52059336    -0.20060
H3110       H  0.45231410  0.72533135  0.51724255     0.17710
H3111       H  0.54311131  0.74439159  0.50975699     0.17710
F3112       F  0.53250378  0.69735945  0.50606282    -0.20050
C3113       C  0.47065216  0.62111406  0.43264494    -0.21480
C3114       C  0.44764702  0.61753998  0.44507021    -0.09520
C3115       C  0.42946603  0.60192759  0.43413064     0.29330
C3116       C  0.43542062  0.58763021  0.41304550    -0.21480
C3117       C  0.45953968  0.58872635  0.40252588    -0.09540
C3118       C  0.47664977  0.60673870  0.41140750     0.29340
F3119       F  0.50025167  0.60787413  0.40189867    -0.20060
H3120       H  0.48515446  0.63253467  0.44118933     0.17710
H3121       H  0.42202281  0.57378269  0.40647535     0.17710
F3122       F  0.40722351  0.59787920  0.44588964    -0.20050
C3123       C  0.39714669  0.56980752  0.56475570    -0.21480
C3124       C  0.39651001  0.58008153  0.54056413    -0.09520
C3125       C  0.37839322  0.57146788  0.52346535     0.29330
C3126       C  0.36340436  0.55065307  0.52958319    -0.21480
C3127       C  0.36647304  0.53839722  0.55269301    -0.09540
C3128       C  0.38219394  0.54916969  0.57084740     0.29340
F3129       F  0.38560888  0.53761476  0.59326086    -0.20060
H3130       H  0.41093686  0.57630345  0.57819919     0.17710
H3131       H  0.35186239  0.54222900  0.51513345     0.17710
F3132       F  0.37762643  0.58080309  0.49981652    -0.20050
C3133       C  0.52002568  0.71876736  0.72666528    -0.21480
C3134       C  0.52606618  0.74312537  0.73480735    -0.09520
C3135       C  0.50684479  0.75820414  0.74485205     0.29330
C3136       C  0.48181927  0.74958715  0.74477554    -0.21480
C3137       C  0.47576761  0.72562790  0.73529908    -0.09540
C3138       C  0.49537222  0.71008757  0.72685536     0.29340
F3139       F  0.49060694  0.68719194  0.71668986    -0.20060
H3140       H  0.53440094  0.70663062  0.71897223     0.17710
H3141       H  0.46708259  0.76193639  0.75133173     0.17710
F3142       F  0.51191851  0.78173623  0.75317753    -0.20050
C3143       C  0.31990705  0.59793223  0.69222068    -0.21480
C3144       C  0.29796438  0.60877528  0.70224058    -0.09520
C3145       C  0.30021314  0.63098512  0.71649406     0.29330
C3146       C  0.32319682  0.64181295  0.72080914    -0.21480
C3147       C  0.34459524  0.63281243  0.70898406    -0.09540
C3148       C  0.34325785  0.61038991  0.69499798     0.29340
F3149       F  0.36381194  0.60164179  0.68282305    -0.20060
H3150       H  0.31866150  0.58127612  0.68065230     0.17710
H3151       H  0.32370468  0.65933534  0.73117280     0.17710
F3152       F  0.27996827  0.64427378  0.72418983    -0.20050
C3153       C  0.32146625  0.75822934  0.62378775    -0.21480
C3154       C  0.30272481  0.73992605  0.62050094    -0.09520
C3155       C  0.30719500  0.71530911  0.62872264     0.29330
C3156       C  0.32899312  0.70968889  0.64207653    -0.21480
C3157       C  0.34656079  0.72853601  0.64764666    -0.09540
C3158       C  0.34324851  0.75264008  0.63749624     0.29340
F3159       F  0.35939173  0.77143669  0.64347002    -0.20060
H3160       H  0.31804872  0.77744839  0.61810396     0.17710
H3161       H  0.33099746  0.69113797  0.65017770     0.17710
F3162       F  0.28933626  0.69730842  0.62594712    -0.20050
C3163       C  0.34450499  0.70046035  0.79179428    -0.21480
C3164       C  0.36919711  0.69129798  0.79233167    -0.09520
C3165       C  0.38097524  0.68859582  0.81585416     0.29330
C3166       C  0.36772430  0.69478896  0.83815322    -0.21480
C3167       C  0.34301546  0.70436817  0.83694716    -0.09540
C3168       C  0.33180564  0.70703108  0.81330113     0.29340
F3169       F  0.30801419  0.71573228  0.81061592    -0.20060
H3170       H  0.33455395  0.70298695  0.77427996     0.17710
H3171       H  0.37679468  0.69247398  0.85614484     0.17710
F3172       F  0.40472120  0.67960995  0.81734509    -0.20050
C3173       C  0.44542798  0.69262829  0.63205158    -0.21480
C3174       C  0.43421588  0.67500533  0.64819659    -0.09520
C3175       C  0.42588911  0.65192054  0.63821220     0.29330
C3176       C  0.42890423  0.64679125  0.61262585    -0.21480
C3177       C  0.44040071  0.66444715  0.59682840    -0.09540
C3178       C  0.44855792  0.68741569  0.60671587     0.29340
F3179       F  0.45961993  0.70486080  0.59177365    -0.20060
H3180       H  0.45171930  0.71069308  0.63897021     0.17710
H3181       H  0.42307392  0.62871950  0.60531404     0.17710
F3182       F  0.41473207  0.63441881  0.65299522    -0.20050
C3183       C  0.74387173  0.49890814  0.47300370    -0.21480
C3184       C  0.72379580  0.49768184  0.49003314    -0.09520
C3185       C  0.72920934  0.49416705  0.51571109     0.29330
C3186       C  0.75411608  0.49381130  0.52413455    -0.21480
C3187       C  0.77401480  0.49723435  0.50725135    -0.09540
C3188       C  0.76868475  0.49883793  0.48146608     0.29340
F3189       F  0.78748656  0.50128944  0.46445595    -0.20060
H3190       H  0.74041704  0.50134036  0.45315524     0.17710
H3191       H  0.75775534  0.49247128  0.54405586     0.17710
F3192       F  0.71050841  0.49227978  0.53289441    -0.20050
C3193       C  0.56552782  0.57063474  0.46975936    -0.21480
C3194       C  0.58669846  0.57348547  0.48508573    -0.09520
C3195       C  0.58713482  0.59231298  0.50334275     0.29330
C3196       C  0.56541318  0.60613551  0.50812756    -0.21480
C3197       C  0.54313038  0.60123076  0.49474079    -0.09540
C3198       C  0.54390459  0.58456220  0.47430466     0.29340
F3199       F  0.52323009  0.57993409  0.46018193    -0.20060
H3200       H  0.56518043  0.55633372  0.45530898     0.17710
H3201       H  0.56550225  0.61916799  0.52371057     0.17710
F3202       F  0.60746649  0.59534506  0.51834640    -0.20050
C3203       C  0.58724929  0.54726453  0.39270788    -0.21480
C3204       C  0.59567940  0.52235614  0.39420360    -0.09520
C3205       C  0.58537624  0.50435985  0.37790461     0.29330
C3206       C  0.56493458  0.51073739  0.36253056    -0.21480
C3207       C  0.55458359  0.53502450  0.36335671    -0.09540
C3208       C  0.56700042  0.55361375  0.37733635     0.29340
F3209       F  0.55726007  0.57709936  0.37889754    -0.20060
H3210       H  0.59486900  0.56137400  0.40522343     0.17710
H3211       H  0.55520796  0.49591429  0.35255844     0.17710
F3212       F  0.59271066  0.48000697  0.37934208    -0.20050
C3213       C  0.61861476  0.41924355  0.43088971    -0.21480
C3214       C  0.63353527  0.43003807  0.44963443    -0.09520
C3215       C  0.63584873  0.41773382  0.47284082     0.29330
C3216       C  0.62067259  0.39688883  0.47825887    -0.21480
C3217       C  0.60311800  0.38846691  0.46058015    -0.09540
C3218       C  0.60336818  0.39866889  0.43632285     0.29340
F3219       F  0.58678201  0.39054769  0.41878459    -0.20060
H3220       H  0.61628842  0.42872572  0.41307272     0.17710
H3221       H  0.62055667  0.38931010  0.49709615     0.17710
F3222       F  0.64970911  0.42815872  0.49147537    -0.20050
C3223       C  0.76514882  0.72547681  0.47942177    -0.21480
C3224       C  0.73997289  0.71888952  0.47447397    -0.09520
C3225       C  0.72444258  0.71283247  0.49502952     0.29330
C3226       C  0.73423354  0.71196359  0.51941323    -0.21480
C3227       C  0.75957953  0.71756374  0.52423179    -0.09540
C3228       C  0.77481303  0.72507860  0.50399823     0.29340
F3229       F  0.79945785  0.73033194  0.50767503    -0.20060
H3230       H  0.77766001  0.73013522  0.46410390     0.17710
H3231       H  0.72203019  0.70615123  0.53459749     0.17710
F3232       F  0.70012108  0.70611851  0.49152134    -0.20050
C3233       C  0.66425010  0.62478804  0.42679585    -0.21480
C3234       C  0.68932952  0.63297866  0.42700330    -0.09520
C3235       C  0.70860361  0.61501849  0.43010312     0.29330
C3236       C  0.70278346  0.58987240  0.43419168    -0.21480
C3237       C  0.67784709  0.58194541  0.43468534    -0.09540
C3238       C  0.65850805  0.59939528  0.43070895     0.29340
F3239       F  0.63412199  0.59209373  0.43199439    -0.20060
H3240       H  0.64911850  0.63807673  0.42417706     0.17710
H3241       H  0.71779641  0.57658432  0.43752554     0.17710
F3242       F  0.73321035  0.62159923  0.42922871    -0.20050
C3243       C  0.62647323  0.70877615  0.33649610    -0.21480
C3244       C  0.64224813  0.69049796  0.34699374    -0.09520
C3245       C  0.64119056  0.66584364  0.33755923     0.29330
C3246       C  0.62734690  0.66046852  0.31595052    -0.21480
C3247       C  0.61401644  0.67945524  0.30358667    -0.09540
C3248       C  0.61237873  0.70330300  0.31489422     0.29340
F3249       F  0.60014081  0.72223577  0.30308320    -0.20060
H3250       H  0.62726928  0.72796212  0.34320212     0.17710
H3251       H  0.62919795  0.64211095  0.30738963     0.17710
F3252       F  0.65578278  0.64759211  0.34765522    -0.20050
C3253       C  0.51621348  0.45897674  0.74230328    -0.21480
C3254       C  0.51376736  0.47584883  0.72222495    -0.09520
C3255       C  0.50959566  0.50141813  0.72762834     0.29330
C3256       C  0.50966270  0.50997323  0.75249566    -0.21480
C3257       C  0.51380722  0.49328541  0.77249323    -0.09540
C3258       C  0.51633901  0.46746794  0.76707621     0.29340
F3259       F  0.52050503  0.45042811  0.78552225    -0.20060
H3260       H  0.51945292  0.43920356  0.73885305     0.17710
H3261       H  0.50739004  0.52986949  0.75601605     0.17710
F3262       F  0.50630131  0.51833528  0.70890886    -0.20050
C3263       C  0.60799943  0.49316132  0.58803330    -0.21480
C3264       C  0.59452892  0.47062404  0.58878602    -0.09520
C3265       C  0.59565972  0.45413561  0.56828990     0.29330
C3266       C  0.60768953  0.46142784  0.54623717    -0.21480
C3267       C  0.61857281  0.48537505  0.54427023    -0.09540
C3268       C  0.62003127  0.50058221  0.56593856     0.29340
F3269       F  0.63092436  0.52362656  0.56523011    -0.20060
H3270       H  0.60703437  0.50616977  0.60361802     0.17710
H3271       H  0.60678223  0.44907188  0.53013059     0.17710
F3272       F  0.58300982  0.43200301  0.56879590    -0.20050
C3273       C  0.56187774  0.37487215  0.58686405    -0.21480
C3274       C  0.53719980  0.37740676  0.59573371    -0.09520
C3275       C  0.51824307  0.36232220  0.58532621     0.29330
C3276       C  0.52342011  0.34755988  0.56414300    -0.21480
C3277       C  0.54747085  0.34774501  0.55326309    -0.09540
C3278       C  0.56703077  0.36011005  0.56582759     0.29340
F3279       F  0.59033713  0.36093692  0.55557422    -0.20060
H3280       H  0.57673299  0.38638112  0.59466355     0.17710
H3281       H  0.50793528  0.33873262  0.55435343     0.17710
F3282       F  0.49415333  0.36464978  0.59325496    -0.20050
C3283       C  0.48783075  0.53995788  0.61331410    -0.21480
C3284       C  0.51159700  0.52909413  0.61040899    -0.09520
C3285       C  0.52978702  0.54106700  0.59553348     0.29330
C3286       C  0.52372605  0.56280996  0.58249224    -0.21480
C3287       C  0.49970480  0.57314487  0.58451778    -0.09540
C3288       C  0.48194838  0.56215717  0.60058545     0.29340
F3289       F  0.45847521  0.57181451  0.60243687    -0.20060
H3290       H  0.47372233  0.53092228  0.62482298     0.17710
H3291       H  0.53731461  0.57079573  0.56962009     0.17710
F3292       F  0.55271167  0.53054557  0.59190935    -0.20050
C3293       C  0.41574957  0.46930047  0.61566243    -0.21480
C3294       C  0.40134117  0.44891990  0.60733145    -0.09520
C3295       C  0.40846964  0.42446141  0.61419175     0.29330
C3296       C  0.43127617  0.42035997  0.62661627    -0.21480
C3297       C  0.44705878  0.44063640  0.63237626    -0.09540
C3298       C  0.43854714  0.46522320  0.62795598     0.29340
F3299       F  0.45370904  0.48515699  0.63265970    -0.20060
H3300       H  0.41090507  0.48822337  0.61000805     0.17710
H3301       H  0.43772718  0.40128818  0.62944282     0.17710
F3302       F  0.39470759  0.40445086  0.60647372    -0.20050
C3303       C  0.75086834  0.48043423  0.72800985    -0.21480
C3304       C  0.73286069  0.46278981  0.73585433    -0.09520
C3305       C  0.71539845  0.46972903  0.75437769     0.29330
C3306       C  0.71630313  0.49345899  0.76533129    -0.21480
C3307       C  0.73424688  0.51114195  0.75777594    -0.09540
C3308       C  0.75153786  0.50457358  0.73887881     0.29340
F3309       F  0.76924509  0.52127861  0.73133614    -0.20060
H3310       H  0.76448457  0.47544627  0.71379090     0.17710
H3311       H  0.70226039  0.49838013  0.77918432     0.17710
F3312       F  0.69674524  0.45374257  0.76127073    -0.20050
C3313       C  0.63740489  0.39925432  0.66909063    -0.21480
C3314       C  0.65078724  0.41538650  0.68515479    -0.09520
C3315       C  0.63792464  0.43449819  0.69784433     0.29330
C3316       C  0.61228393  0.43731244  0.69475972    -0.21480
C3317       C  0.59867717  0.42150085  0.67863325    -0.09540
C3318       C  0.61141536  0.40224548  0.66581629     0.29340
F3319       F  0.59900689  0.38686584  0.64975854    -0.20060
H3320       H  0.64695627  0.38407073  0.65954616     0.17710
H3321       H  0.60312414  0.45245811  0.70475688     0.17710
F3322       F  0.65020806  0.45073306  0.71318492    -0.20050
C3323       C  0.67850314  0.30221144  0.62585092    -0.21480
C3324       C  0.69692016  0.29082086  0.61089833    -0.09520
C3325       C  0.72027568  0.30297232  0.60816899     0.29330
C3326       C  0.72602641  0.32429319  0.62271019    -0.21480
C3327       C  0.70855071  0.33359534  0.64010873    -0.09540
C3328       C  0.68421341  0.32333310  0.64035143     0.29340
F3329       F  0.66675127  0.33208687  0.65669119    -0.20060
H3330       H  0.66056828  0.29298802  0.62860531     0.17710
H3331       H  0.74496106  0.33171243  0.62239126     0.17710
F3332       F  0.73870930  0.29215178  0.59434046    -0.20050
C3333       C  0.99473518  0.46995668  0.23153145    -0.21480
C3334       C  0.98843630  0.49512229  0.22654771    -0.09520
C3335       C  0.98480552  0.51149528  0.24697190     0.29330
C3336       C  0.98589997  0.50242781  0.27157759    -0.21480
C3337       C  0.99045167  0.47686655  0.27648666    -0.09540
C3338       C  0.99575952  0.46088361  0.25614769     0.29340
F3339       F  0.00101251  0.43624481  0.25990202    -0.20060
H3340       H  0.99791507  0.45693552  0.21626375     0.17710
H3341       H  0.98173644  0.51525654  0.28676535     0.17710
F3342       F  0.97846512  0.53589151  0.24328588    -0.20050
C3343       C  0.98978613  0.41767546  0.12526945    -0.21480
C3344       C  0.00269398  0.44017617  0.11983131    -0.09520
C3345       C  0.02337419  0.43936661  0.10345551     0.29330
C3346       C  0.02832064  0.41755932  0.08996534    -0.21480
C3347       C  0.01316415  0.39620624  0.09291624    -0.09540
C3348       C  0.99503731  0.39569952  0.11190326     0.29340
F3349       F  0.98047832  0.37506583  0.11541663    -0.20060
H3350       H  0.97417211  0.41757775  0.13827303     0.17710
H3351       H  0.04271317  0.41801997  0.07561053     0.17710
F3352       F  0.03721949  0.46019747  0.09846050    -0.20050
C3353       C  0.06393242  0.55399255  0.11837702    -0.21480
C3354       C  0.05279890  0.53502373  0.13283102    -0.09520
C3355       C  0.06488117  0.51156277  0.13446743     0.29330
C3356       C  0.08600154  0.50638837  0.11948146    -0.21480
C3357       C  0.09518431  0.52456543  0.10273763    -0.09540
C3358       C  0.08494994  0.54889191  0.10353351     0.29340
F3359       F  0.09371651  0.56705680  0.08796946    -0.20060
H3360       H  0.05471399  0.57201063  0.11644637     0.17710
H3361       H  0.09339254  0.48745935  0.11899180     0.17710
F3362       F  0.05424186  0.49262977  0.14780576    -0.20050
C3363       C  0.76838480  0.50402231  0.26714898    -0.21480
C3364       C  0.76528146  0.50877576  0.24137642    -0.09520
C3365       C  0.76095116  0.48839916  0.22519657     0.29330
C3366       C  0.76176559  0.46382127  0.23441336    -0.21480
C3367       C  0.76697579  0.45907645  0.25984778    -0.09540
C3368       C  0.76937119  0.47953515  0.27632077     0.29340
F3369       F  0.77444913  0.47605099  0.30099900    -0.20060
H3370       H  0.77156149  0.51926887  0.28020655     0.17710
H3371       H  0.75948916  0.44843676  0.22132733     0.17710
F3372       F  0.75712536  0.49205469  0.20032972    -0.20050
C3373       C  0.85666915  0.52913875  0.18716127    -0.21480
C3374       C  0.84832919  0.55388138  0.18512278    -0.09520
C3375       C  0.86536393  0.57292948  0.17852836     0.29330
C3376       C  0.89076441  0.56720850  0.17482026    -0.21480
C3377       C  0.89939410  0.54243647  0.17769162    -0.09540
C3378       C  0.88180923  0.52330182  0.18317013     0.29340
F3379       F  0.88876864  0.49884842  0.18484731    -0.20060
H3380       H  0.84371145  0.51434296  0.19243642     0.17710
H3381       H  0.90373456  0.58220715  0.17026107     0.17710
F3382       F  0.85771840  0.59719642  0.17719726    -0.20050
C3383       C  0.72894166  0.62648738  0.29697794    -0.21480
C3384       C  0.75255627  0.61503930  0.29511554    -0.09520
C3385       C  0.76835927  0.61478728  0.31639782     0.29330
C3386       C  0.76164528  0.62813158  0.33797047    -0.21480
C3387       C  0.73927755  0.64180881  0.33853316    -0.09540
C3388       C  0.72242980  0.63993181  0.31840580     0.29340
F3389       F  0.70050800  0.65282845  0.31865580    -0.20060
H3390       H  0.71622045  0.62665578  0.28115180     0.17710
H3391       H  0.77490500  0.62962373  0.35327743     0.17710
F3392       F  0.79124841  0.60366155  0.31569781    -0.20050
C3393       C  0.68462285  0.59673929  0.22493746    -0.21480
C3394       C  0.69628341  0.59813891  0.20133757    -0.09520
C3395       C  0.68378579  0.61028973  0.18166780     0.29330
C3396       C  0.66146911  0.62326053  0.18626664    -0.21480
C3397       C  0.65134972  0.62441457  0.21055291    -0.09540
C3398       C  0.66222730  0.60980987  0.22958556     0.29340
F3399       F  0.65340081  0.61120841  0.25341213    -0.20060
H3400       H  0.69435421  0.58808085  0.24051221     0.17710
H3401       H  0.65358220  0.63471094  0.17145542     0.17710
F3402       F  0.69481220  0.61229192  0.15881658    -0.20050
C3403       C  0.23405478  0.46447401  0.73065133    -0.21480
C3404       C  0.23584297  0.45957059  0.75647399    -0.09520
C3405       C  0.23963897  0.47996582  0.77289829     0.29330
C3406       C  0.23967224  0.50464743  0.76377030    -0.21480
C3407       C  0.23605997  0.50958778  0.73813403    -0.09540
C3408       C  0.23409393  0.48907744  0.72153302     0.29340
F3409       F  0.23042754  0.49265510  0.69662188    -0.20060
H3410       H  0.23124708  0.44927463  0.71745521     0.17710
H3411       H  0.24146560  0.51997537  0.77699427     0.17710
F3412       F  0.24220190  0.47625463  0.79792184    -0.20050
C3413       C  0.16516335  0.29980698  0.77951272    -0.21480
C3414       C  0.16078628  0.32164069  0.76544087    -0.09520
C3415       C  0.13963704  0.32296755  0.74997441     0.29330
C3416       C  0.12496783  0.30150627  0.74624412    -0.21480
C3417       C  0.13123214  0.27863435  0.75798650    -0.09540
C3418       C  0.15040164  0.27847420  0.77606346     0.29340
F3419       F  0.15675159  0.25709573  0.78836288    -0.20060
H3420       H  0.18114113  0.29874029  0.79201531     0.17710
H3421       H  0.11003836  0.30224090  0.73250403     0.17710
F3422       F  0.13481165  0.34397780  0.73643393    -0.20050
C3423       C  0.27074727  0.33391343  0.70647222    -0.21480
C3424       C  0.25037582  0.35054417  0.70666364    -0.09520
C3425       C  0.23825834  0.35612490  0.68377158     0.29330
C3426       C  0.24460781  0.34303297  0.66188749    -0.21480
C3427       C  0.26296790  0.32429507  0.66264629    -0.09540
C3428       C  0.27690224  0.32078698  0.68475256     0.29340
F3429       F  0.29532220  0.30323239  0.68583938    -0.20060
H3430       H  0.28076853  0.32957248  0.72358066     0.17710
H3431       H  0.23377535  0.34604085  0.64498937     0.17710
F3432       F  0.21916301  0.37292705  0.68282038    -0.20050
C3433       C  0.33560028  0.35731216  0.77115518    -0.21480
C3434       C  0.34460997  0.34028072  0.78907324    -0.09520
C3435       C  0.33481760  0.34116903  0.81354706     0.29330
C3436       C  0.31416675  0.35628770  0.81900615    -0.21480
C3437       C  0.30285433  0.37065601  0.80017369    -0.09540
C3438       C  0.31472407  0.37245645  0.77665531     0.29340
F3439       F  0.30389605  0.38583707  0.75792749    -0.20060
H3440       H  0.34275038  0.35679268  0.75215481     0.17710
H3441       H  0.30509139  0.35430863  0.83708420     0.17710
F3442       F  0.34332508  0.32518291  0.83141319    -0.20050
C3443       C  0.18382567  0.32532701  0.85635186    -0.21480
C3444       C  0.20847363  0.33462396  0.85591181    -0.09520
C3445       C  0.22600139  0.32509974  0.87310548     0.29330
C3446       C  0.21973820  0.30422401  0.88797967    -0.21480
C3447       C  0.19603726  0.29278236  0.88573866    -0.09540
C3448       C  0.17756403  0.30469884  0.87126022     0.29340
F3449       F  0.15459967  0.29397665  0.86850569    -0.20060
H3450       H  0.17008256  0.33236086  0.84315893     0.17710
H3451       H  0.23444153  0.29498667  0.89851204     0.17710
F3452       F  0.25005806  0.33349333  0.87287491    -0.20050
C3453       C  0.00902244  0.50281557  0.76799262    -0.21480
C3454       C  0.01222986  0.47709171  0.77323134    -0.09520
C3455       C  0.01454117  0.46047183  0.75273439     0.29330
C3456       C  0.01500271  0.46953273  0.72804341    -0.21480
C3457       C  0.01318503  0.49537644  0.72282401    -0.09540
C3458       C  0.00937053  0.51188355  0.74320123     0.29340
F3459       F  0.00710399  0.53696922  0.73939286    -0.20060
H3460       H  0.00714617  0.51615160  0.78319913     0.17710
H3461       H  0.01790299  0.45621542  0.71298116     0.17710
F3462       F  0.01796324  0.43549953  0.75643708    -0.20050
C3463       C  0.01794468  0.36999347  0.91417478    -0.21480
C3464       C  0.03927119  0.37761709  0.90074421    -0.09520
C3465       C  0.06309748  0.37046296  0.90948783     0.29330
C3466       C  0.06558581  0.35818287  0.93262417    -0.21480
C3467       C  0.04434379  0.35293744  0.94726623    -0.09540
C3468       C  0.02041491  0.35800406  0.93738421     0.29340
F3469       F  0.99954072  0.35400694  0.95142181    -0.20060
H3470       H  0.99946762  0.37591645  0.90815155     0.17710
H3471       H  0.08417522  0.35487646  0.94011904     0.17710
F3472       F  0.08402306  0.37745827  0.89676832    -0.20050
C3473       C  0.10522142  0.49949197  0.90884890    -0.21480
C3474       C  0.09402730  0.47581930  0.90690774    -0.09520
C3475       C  0.09684999  0.45847057  0.92655273     0.29330
C3476       C  0.10847067  0.46562303  0.94884947    -0.21480
C3477       C  0.11739032  0.49021927  0.95192032    -0.09540
C3478       C  0.11690157  0.50673833  0.93117870     0.29340
F3479       F  0.12546369  0.53067641  0.93313050    -0.20060
H3480       H  0.10272277  0.51322479  0.89408525     0.17710
H3481       H  0.10898460  0.45240013  0.96426603     0.17710
F3482       F  0.08615310  0.43536750  0.92505555    -0.20050
C3483       C  0.10926763  0.40403578  0.82611589    -0.21480
C3484       C  0.09831694  0.42544695  0.81524888    -0.09520
C3485       C  0.11362985  0.44195376  0.80130228     0.29330
C3486       C  0.13906134  0.43703781  0.79825396    -0.21480
C3487       C  0.15001981  0.41580643  0.80912190    -0.09540
C3488       C  0.13498741  0.39923810  0.82313686     0.29340
F3489       F  0.14489658  0.37795695  0.83297083    -0.20060
H3490       H  0.09802416  0.39125106  0.83724289     0.17710
H3491       H  0.15025969  0.44978424  0.78701275     0.17710
F3492       F  0.10410927  0.46292148  0.79042204    -0.20050
C3493       C  0.52215559  0.23165508  0.98185455    -0.21480
C3494       C  0.50601519  0.21109452  0.98558792    -0.09520
C3495       C  0.48039264  0.21598053  0.99051558     0.29330
C3496       C  0.47111731  0.24069245  0.99008064    -0.21480
C3497       C  0.48704572  0.26091022  0.98436619    -0.09540
C3498       C  0.51282554  0.25619046  0.98104719     0.29340
F3499       F  0.52896499  0.27532708  0.97615777    -0.20060
H3500       H  0.54191809  0.22870561  0.97816044     0.17710
H3501       H  0.45121330  0.24384343  0.99269058     0.17710
F3502       F  0.46402739  0.19687145  0.99465002    -0.20050
C3503       C  0.56700482  0.09410264  0.08564965    -0.21480
C3504       C  0.54287311  0.09451275  0.09630550    -0.09520
C3505       C  0.52498414  0.11123225  0.08653401     0.29330
C3506       C  0.53027790  0.12473771  0.06450219    -0.21480
C3507       C  0.55332906  0.12155115  0.05204766    -0.09540
C3508       C  0.57215526  0.10729126  0.06361217     0.29340
F3509       F  0.59443937  0.10352196  0.05186460    -0.20060
H3510       H  0.58100980  0.08119570  0.09273934     0.17710
H3511       H  0.51530028  0.13512692  0.05554681     0.17710
F3512       F  0.50133407  0.11166104  0.09596912    -0.20050
C3513       C  0.50321972  0.21027640  0.76004380    -0.21480
C3514       C  0.52280447  0.22774873  0.76277303    -0.09520
C3515       C  0.51680293  0.25342364  0.76421660     0.29330
C3516       C  0.49175455  0.26125298  0.76458331    -0.21480
C3517       C  0.47200831  0.24369228  0.76400625    -0.09540
C3518       C  0.47803741  0.21807657  0.76084213     0.29340
F3519       F  0.45968875  0.20042490  0.75961234    -0.20060
H3520       H  0.50736261  0.19039753  0.75898918     0.17710
H3521       H  0.48788857  0.28108628  0.76681033     0.17710
F3522       F  0.53521551  0.27094619  0.76631798    -0.20050
C3523       C  0.54662398  0.16971129  0.85459199    -0.21480
C3524       C  0.57077294  0.17881079  0.84961852    -0.09520
C3525       C  0.58818035  0.18079961  0.86940685     0.29330
C3526       C  0.58128829  0.17440065  0.89379970    -0.21480
C3527       C  0.55681385  0.16640278  0.89905787    -0.09540
C3528       C  0.53955779  0.16374168  0.87915975     0.29340
F3529       F  0.51591333  0.15522443  0.88339722    -0.20060
H3530       H  0.53296860  0.16814762  0.83964716     0.17710
H3531       H  0.59494848  0.17630715  0.90870341     0.17710
F3532       F  0.61189092  0.18918385  0.86517227    -0.20050
C3533       C  0.62704247  0.30078427  0.73991793    -0.21480
C3534       C  0.63485163  0.28599839  0.76024040    -0.09520
C3535       C  0.65552010  0.29362508  0.77466892     0.29330
C3536       C  0.66959554  0.31431132  0.76754828    -0.21480
C3537       C  0.66329461  0.32784644  0.74603565    -0.09540
C3538       C  0.64128454  0.32184677  0.73279154     0.29340
F3539       F  0.63496745  0.33481175  0.71184165    -0.20060
H3540       H  0.61122755  0.29498335  0.72856264     0.17710
H3541       H  0.68640997  0.31890527  0.77803415     0.17710
F3542       F  0.66320294  0.27991453  0.79469045    -0.20050
C3543       C  0.61212103  0.21143957  0.67826941    -0.21480
C3544       C  0.61481204  0.18991542  0.69334953    -0.09520
C3545       C  0.63021418  0.17033166  0.68481696     0.29330
C3546       C  0.64537962  0.17385509  0.66364572    -0.21480
C3547       C  0.64493014  0.19665768  0.65035686    -0.09540
C3548       C  0.62692395  0.21476384  0.65678070     0.29340
F3549       F  0.62621417  0.23711723  0.64458301    -0.20060
H3550       H  0.60075031  0.22698009  0.68477988     0.17710
H3551       H  0.65921108  0.15969293  0.65902570     0.17710
F3552       F  0.63366404  0.14955048  0.69912437    -0.20050
C3553       C  0.47935096  0.71696600  0.23343419    -0.21480
C3554       C  0.47480453  0.74297928  0.23217202    -0.09520
C3555       C  0.49543677  0.75944324  0.23404251     0.29330
C3556       C  0.51994873  0.74996523  0.23542235    -0.21480
C3557       C  0.52455642  0.72391808  0.23494440    -0.09540
C3558       C  0.50379921  0.70750092  0.23475456     0.29340
F3559       F  0.50700418  0.68222472  0.23449224    -0.20060
H3560       H  0.46395589  0.70371387  0.23229451     0.17710
H3561       H  0.53543264  0.76315914  0.23568632     0.17710
F3562       F  0.49216361  0.78469452  0.23322733    -0.20050
C3563       C  0.37211909  0.66783961  0.22628246    -0.21480
C3564       C  0.37145930  0.68851595  0.24276222    -0.09520
C3565       C  0.36245958  0.68499686  0.26727755     0.29330
C3566       C  0.35149369  0.66215156  0.27394823    -0.21480
C3567       C  0.34947606  0.64265141  0.25638310    -0.09540
C3568       C  0.36099083  0.64508333  0.23296112     0.29340
F3569       F  0.35845257  0.62678724  0.21542045    -0.20060
H3570       H  0.37917950  0.66988319  0.20735488     0.17710
H3571       H  0.34229322  0.66056036  0.29200197     0.17710
F3572       F  0.36234969  0.70411847  0.28409713    -0.20050
C3573       C  0.38533210  0.76128336  0.31105881    -0.21480
C3574       C  0.38279334  0.78433961  0.29844646    -0.09520
C3575       C  0.36729625  0.80288123  0.30895067     0.29330
C3576       C  0.35233784  0.79737291  0.32975655    -0.21480
C3577       C  0.35256139  0.77332582  0.34052032    -0.09540
C3578       C  0.37033835  0.75576618  0.33207369     0.29340
F3579       F  0.37091979  0.73230740  0.34197212    -0.20060
H3580       H  0.39658955  0.74646791  0.30288183     0.17710
H3581       H  0.33889582  0.81123580  0.33610864     0.17710
F3582       F  0.36405279  0.82514464  0.29699974    -0.20050
C3583       C  0.33366826  0.83825110  0.18254807    -0.21480
C3584       C  0.34500246  0.83811970  0.20630121    -0.09520
C3585       C  0.33630856  0.85498660  0.22461856     0.29330
C3586       C  0.31470066  0.86941400  0.22007270    -0.21480
C3587       C  0.30168965  0.86719249  0.19725700    -0.09540
C3588       C  0.31218605  0.85257508  0.17804526     0.29340
F3589       F  0.29990197  0.84976486  0.15594641    -0.20060
H3590       H  0.34009999  0.82542161  0.16815420     0.17710
H3591       H  0.30653554  0.88001089  0.23536675     0.17710
F3592       F  0.34657277  0.85504879  0.24787743    -0.20050
C3593       C  0.29444717  0.75529890  0.14543927    -0.21480
C3594       C  0.29386756  0.73417130  0.12980597    -0.09520
C3595       C  0.31651186  0.72140218  0.12457151     0.29330
C3596       C  0.33850249  0.72787365  0.13730425    -0.21480
C3597       C  0.33802162  0.74694015  0.15528607    -0.09540
C3598       C  0.31625803  0.76149795  0.15828455     0.29340
F3599       F  0.31540641  0.78034901  0.17534000    -0.20060
H3600       H  0.27752270  0.76582456  0.14940110     0.17710
H3601       H  0.35516054  0.71649560  0.13486073     0.17710
F3602       F  0.31704571  0.70138606  0.10883487    -0.20050
C3603       C  0.46955918  0.74227762  0.00432961    -0.21480
C3604       C  0.48646223  0.76190537  0.00913850    -0.09520
C3605       C  0.51194087  0.75619964  0.01288949     0.29330
C3606       C  0.51997161  0.73124562  0.01372813    -0.21480
C3607       C  0.50271168  0.71142693  0.01132260    -0.09540
C3608       C  0.47750541  0.71720643  0.00557694     0.29340
F3609       F  0.46024771  0.69870165  0.00244194    -0.20060
H3610       H  0.44985109  0.74626281  0.00142163     0.17710
H3611       H  0.53948148  0.72748929  0.01795526     0.17710
F3612       F  0.52890660  0.77479360  0.01698525    -0.20050
C3613       C  0.47466723  0.94766032  0.09525802    -0.21480
C3614       C  0.49842970  0.94781977  0.10663769    -0.09520
C3615       C  0.51370700  0.92635745  0.10487543     0.29330
C3616       C  0.50625561  0.90621587  0.09016716    -0.21480
C3617       C  0.48359596  0.90701524  0.07684421    -0.09540
C3618       C  0.46720072  0.92737271  0.08047056     0.29340
F3619       F  0.44453409  0.92824327  0.06892237    -0.20060
H3620       H  0.46237197  0.96376143  0.09675971     0.17710
H3621       H  0.51908563  0.89060073  0.08806258     0.17710
F3622       F  0.53678920  0.92547110  0.11559435    -0.20050
C3623       C  0.44365646  0.78086120  0.13013989    -0.21480
C3624       C  0.42899385  0.79669109  0.14541007    -0.09520
C3625       C  0.41791015  0.81809496  0.13461684     0.29330
C3626       C  0.42205617  0.82367948  0.10926072    -0.21480
C3627       C  0.43677573  0.80776565  0.09430174    -0.09540
C3628       C  0.44755592  0.78634700  0.10490647     0.29340
F3629       F  0.46292417  0.77142323  0.09112813    -0.20060
H3630       H  0.45241250  0.76420438  0.13779264     0.17710
H3631       H  0.41428659  0.84073768  0.10140741     0.17710
F3632       F  0.40300130  0.83345656  0.14838838    -0.20050
C3633       C  0.24209998  0.00534333  0.96793561    -0.21480
C3634       C  0.22158224  0.00173450  0.98411532    -0.09520
C3635       C  0.22650647  0.99711676  0.00972702     0.29330
C3636       C  0.25123709  0.99749720  0.01891559    -0.21480
C3637       C  0.27148612  0.00289764  0.00292291    -0.09540
C3638       C  0.26666958  0.00611973  0.97716589     0.29340
F3639       F  0.28573297  0.01069342  0.96089405    -0.20060
H3640       H  0.23909847  0.00885811  0.94817567     0.17710
H3641       H  0.25440842  0.99492223  0.03879349     0.17710
F3642       F  0.20742495  0.99312468  0.02611091    -0.20050
C3643       C  0.38613681  0.89527528  0.05145299    -0.21480
C3644       C  0.38839441  0.88565733  0.02701777    -0.09520
C3645       C  0.37274056  0.89507540  0.00815978     0.29330
C3646       C  0.35707144  0.91552915  0.01305336    -0.21480
C3647       C  0.35759461  0.92766627  0.03649532    -0.09540
C3648       C  0.37089554  0.91627922  0.05620988     0.29340
F3649       F  0.37234528  0.92769923  0.07890068    -0.20060
H3650       H  0.39822781  0.88831252  0.06620224     0.17710
H3651       H  0.34723023  0.92409638  0.99748873     0.17710
F3652       F  0.37441105  0.88607845  0.98441957    -0.20050
C3653       C  0.42744952  0.01081865  0.08254450    -0.21480
C3654       C  0.40405293  0.01379596  0.09398093    -0.09520
C3655       C  0.40316629  0.02476609  0.11809911     0.29330
C3656       C  0.42573412  0.03214843  0.13031741    -0.21480
C3657       C  0.44907047  0.02968267  0.11800497    -0.09540
C3658       C  0.44922379  0.01910329  0.09372147     0.29340
F3659       F  0.47058629  0.01680279  0.08002352    -0.20060
H3660       H  0.42908147  0.00275592  0.06396713     0.17710
H3661       H  0.42489381  0.04042396  0.14882602     0.17710
F3662       F  0.38082731  0.02808328  0.12981784    -0.20050
C3663       C  0.44097622  0.06388566  0.02858301    -0.21480
C3664       C  0.41852585  0.06699445  0.01518955    -0.09520
C3665       C  0.41618457  0.08752799  0.99877095     0.29330
C3666       C  0.43691354  0.10262701  0.99358873    -0.21480
C3667       C  0.46023081  0.09761247  0.00471223    -0.09540
C3668       C  0.46170958  0.07906327  0.02348265     0.29340
F3669       F  0.48364287  0.07404737  0.03538647    -0.20060
H3670       H  0.44309563  0.04862992  0.04181875     0.17710
H3671       H  0.43507595  0.11721917  0.97957231     0.17710
F3672       F  0.39434129  0.09221179  0.98658399    -0.20050
C3673       C  0.23186558  0.21999598  0.01654953    -0.21480
C3674       C  0.25774952  0.22135139  0.02115248    -0.09520
C3675       C  0.27426918  0.22483844  0.00095832     0.29330
C3676       C  0.26504240  0.22479215  0.97639363    -0.21480
C3677       C  0.23921737  0.22154874  0.97165228    -0.09540
C3678       C  0.22258348  0.22031067  0.99212985     0.29340
F3679       F  0.19748143  0.21773343  0.98869054    -0.20060
H3680       H  0.21881280  0.21757071  0.03194934     0.17710
H3681       H  0.27829077  0.22607953  0.96104324     0.17710
F3682       F  0.29941143  0.22612906  0.00479458    -0.20050
C3683       C  0.16677449  0.21183033  0.16107334    -0.21480
C3684       C  0.15294586  0.23340618  0.15552810    -0.09520
C3685       C  0.15942218  0.24812103  0.13463569     0.29330
C3686       C  0.18119958  0.24245884  0.12093858    -0.21480
C3687       C  0.19633928  0.22223868  0.12829888    -0.09540
C3688       C  0.18836104  0.20630488  0.14768481     0.29340
F3689       F  0.20274087  0.18667677  0.15520553    -0.20060
H3690       H  0.16208761  0.20049253  0.17729872     0.17710
H3691       H  0.18734363  0.25500662  0.10617744     0.17710
F3692       F  0.14638763  0.26931612  0.12928864    -0.20050
C3693       C  0.31271887  0.30059818  0.12581523    -0.21480
C3694       C  0.29302334  0.29304559  0.11010910    -0.09520
C3695       C  0.27183614  0.30864435  0.10785992     0.29330
C3696       C  0.26881538  0.32927428  0.12384096    -0.21480
C3697       C  0.28671325  0.33423153  0.14243249    -0.09540
C3698       C  0.30948595  0.32087547  0.14217023     0.29340
F3699       F  0.32754403  0.32584302  0.15940997    -0.20060
H3700       H  0.32907730  0.28875063  0.12804396     0.17710
H3701       H  0.25121703  0.33942757  0.12362514     0.17710
F3702       F  0.25252873  0.30181647  0.09273996    -0.20050
C3703       C  0.34654635  0.19603761  0.19879378    -0.21480
C3704       C  0.37262641  0.19342011  0.19771379    -0.09520
C3705       C  0.38467745  0.19466641  0.17425037     0.29330
C3706       C  0.37039284  0.19956572  0.15241679    -0.21480
C3707       C  0.34457628  0.20511214  0.15444931    -0.09540
C3708       C  0.33309963  0.20354830  0.17809134     0.29340
F3709       F  0.30910641  0.21106984  0.18190905    -0.20060
H3710       H  0.33685888  0.19556621  0.21668653     0.17710
H3711       H  0.37971022  0.20092744  0.13443117     0.17710
F3712       F  0.41002061  0.19296073  0.17269464    -0.20050
C3713       C  0.23849940  0.12182706  0.18686731    -0.21480
C3714       C  0.25338789  0.12442441  0.20845767    -0.09520
C3715       C  0.27515590  0.13929699  0.20733420     0.29330
C3716       C  0.27996109  0.15369921  0.18608517    -0.21480
C3717       C  0.26308565  0.15372257  0.16585456    -0.09540
C3718       C  0.24318385  0.13639860  0.16574367     0.29340
F3719       F  0.22713684  0.13473468  0.14607352    -0.20060
H3720       H  0.22199429  0.10994116  0.18690923     0.17710
H3721       H  0.29612067  0.16590742  0.18617657     0.17710
F3722       F  0.29076777  0.14148752  0.22730032    -0.20050
C3723       C  0.32754219  0.13223689  0.05481456    -0.21480
C3724       C  0.30806422  0.13495499  0.07214620    -0.09520
C3725       C  0.29739015  0.11314108  0.08303557     0.29330
C3726       C  0.30496119  0.08929558  0.07535885    -0.21480
C3727       C  0.32336024  0.08659342  0.05689663    -0.09540
C3728       C  0.33524927  0.10837691  0.04728319     0.29340
F3729       F  0.35407426  0.10679176  0.03019634    -0.20060
H3730       H  0.33636653  0.14858010  0.04651370     0.17710
H3731       H  0.29583265  0.07295903  0.08334298     0.17710
F3732       F  0.27920287  0.11467443  0.10080534    -0.20050
C3733       C  0.11830577  0.90473172  0.97904547    -0.21480
C3734       C  0.10315248  0.89097059  0.96246425    -0.09520
C3735       C  0.10306686  0.89756173  0.93693783     0.29330
C3736       C  0.11593233  0.91901865  0.92871190    -0.21480
C3737       C  0.12985645  0.93372365  0.94556057    -0.09540
C3738       C  0.13201612  0.92562465  0.97057494     0.29340
F3739       F  0.14497794  0.93960958  0.98744970    -0.20060
H3740       H  0.11840828  0.90014220  0.99882034     0.17710
H3741       H  0.11337654  0.92530259  0.90957590     0.17710
F3742       F  0.08816568  0.88502379  0.92052426    -0.20050
C3743       C  0.06257223  0.86525337  0.06634237    -0.21480
C3744       C  0.04349144  0.85152813  0.05436020    -0.09520
C3745       C  0.02027614  0.84878933  0.06678688     0.29330
C3746       C  0.01507342  0.86249288  0.08857604    -0.21480
C3747       C  0.03315711  0.87851797  0.09894831    -0.09540
C3748       C  0.05750663  0.87858058  0.08859226     0.29340
F3749       F  0.07535157  0.89415873  0.09799145    -0.20060
H3750       H  0.08034962  0.86823639  0.05693753     0.17710
H3751       H  0.99617415  0.86229269  0.09607911     0.17710
F3752       F  0.00136635  0.83571257  0.05578665    -0.20050
C3753       C  0.17449202  0.76050104  0.84700768    -0.21480
C3754       C  0.15440741  0.74350184  0.84637488    -0.09520
C3755       C  0.15471740  0.72236215  0.86207972     0.29330
C3756       C  0.17635600  0.71684847  0.87598711    -0.21480
C3757       C  0.19760515  0.73237069  0.87403892    -0.09540
C3758       C  0.19598691  0.75500018  0.86068361     0.29340
F3759       F  0.21626845  0.77033663  0.85855462    -0.20060
H3760       H  0.17450762  0.77686501  0.83493169     0.17710
H3761       H  0.17748930  0.69914232  0.88591020     0.17710
F3762       F  0.13558100  0.70553955  0.86146513    -0.20050
C3763       C  0.14636870  0.68887440  0.72998493    -0.21480
C3764       C  0.13176904  0.68879597  0.75185556    -0.09520
C3765       C  0.12694847  0.66567244  0.76393873     0.29330
C3766       C  0.13931472  0.64382398  0.75609093    -0.21480
C3767       C  0.15637584  0.64491030  0.73617333    -0.09540
C3768       C  0.15867682  0.66723065  0.72228152     0.29340
F3769       F  0.17485323  0.66876525  0.70266782    -0.20060
H3770       H  0.14986235  0.70611335  0.71981291     0.17710
H3771       H  0.13739222  0.62677532  0.76700359     0.17710
F3772       F  0.11197212  0.66448067  0.78447623    -0.20050
C3773       C  0.11824607  0.77827385  0.67769571    -0.21480
C3774       C  0.12956295  0.77275478  0.70096771    -0.09520
C3775       C  0.15316358  0.76073525  0.70074645     0.29330
C3776       C  0.16498211  0.75461604  0.67856668    -0.21480
C3777       C  0.15452390  0.76055924  0.65528687    -0.09540
C3778       C  0.13084668  0.77253360  0.65487938     0.29340
F3779       F  0.11995663  0.77853516  0.63272008    -0.20060
H3780       H  0.10025937  0.78766738  0.67717281     0.17710
H3781       H  0.18321029  0.74572415  0.67989511     0.17710
F3782       F  0.16559778  0.75507467  0.72220715    -0.20050
C3783       C  0.06474859  0.78644061  0.89140100    -0.21480
C3784       C  0.06002288  0.81174177  0.89649664    -0.09520
C3785       C  0.06029472  0.82916740  0.87656835     0.29330
C3786       C  0.06446030  0.82120190  0.85193368    -0.21480
C3787       C  0.06782584  0.79567089  0.84659270    -0.09540
C3788       C  0.06841103  0.77836819  0.86671402     0.29340
F3789       F  0.07247595  0.75355091  0.86262970    -0.20060
H3790       H  0.06430861  0.77271057  0.90637480     0.17710
H3791       H  0.06438571  0.83493296  0.83696344     0.17710
F3792       F  0.05591994  0.85390625  0.88088812    -0.20050
C3793       C  0.90898206  0.87930948  0.98395589    -0.21480
C3794       C  0.90876901  0.89466270  0.00529026    -0.09520
C3795       C  0.92934070  0.89449615  0.02170106     0.29330
C3796       C  0.95093309  0.88137597  0.01542894    -0.21480
C3797       C  0.95222201  0.86821793  0.99280731    -0.09540
C3798       C  0.93076312  0.86604250  0.97765361     0.29340
F3799       F  0.93185874  0.85371265  0.95542032    -0.20060
H3800       H  0.89332507  0.87953299  0.97102801     0.17710
H3801       H  0.96736126  0.88309979  0.02727801     0.17710
F3802       F  0.92938864  0.90889990  0.04266914    -0.20050
C3803       C  0.92870716  0.96062464  0.13347337    -0.21480
C3804       C  0.94346698  0.93877457  0.13193103    -0.09520
C3805       C  0.93440526  0.91835828  0.11792983     0.29330
C3806       C  0.91299294  0.92118146  0.10294967    -0.21480
C3807       C  0.90006246  0.94418673  0.10207679    -0.09540
C3808       C  0.90702759  0.96329510  0.11883085     0.29340
F3809       F  0.89515572  0.98581603  0.11837857    -0.20060
H3810       H  0.93557914  0.97675997  0.14378152     0.17710
H3811       H  0.90790184  0.90617448  0.09021326     0.17710
F3812       F  0.94834713  0.89717161  0.11560768    -0.20050
C3813       C  0.89683227  0.06888425  0.05978420    -0.21480
C3814       C  0.89559346  0.07977990  0.03587660    -0.09520
C3815       C  0.87752001  0.07095242  0.01880533     0.29330
C3816       C  0.86301124  0.04966208  0.02473046    -0.21480
C3817       C  0.86640323  0.03712718  0.04768109    -0.09540
C3818       C  0.88236988  0.04781372  0.06568912     0.29340
F3819       F  0.88626121  0.03601603  0.08789293    -0.20060
H3820       H  0.91066639  0.07538377  0.07318664     0.17710
H3821       H  0.85136580  0.04132580  0.01031671     0.17710
F3822       F  0.87618765  0.08078641  0.99538617    -0.20050
C3823       C  0.70763725  0.71642420  0.15277363    -0.21480
C3824       C  0.70557596  0.73545821  0.13479989    -0.09520
C3825       C  0.68180201  0.74540777  0.12917030     0.29330
C3826       C  0.66086155  0.73822449  0.14349243    -0.21480
C3827       C  0.66371039  0.72116163  0.16335452    -0.09540
C3828       C  0.68695732  0.70927296  0.16691042     0.29340
F3829       F  0.69009391  0.69188663  0.18525742    -0.20060
H3830       H  0.72574038  0.70822064  0.15703458     0.17710
H3831       H  0.64303176  0.74745430  0.14043100     0.17710
F3832       F  0.67930806  0.76377335  0.11173518    -0.20050
C3833       C  0.77620025  0.66472840  0.11190311    -0.21480
C3834       C  0.79810615  0.67932592  0.11459063    -0.09520
C3835       C  0.81718349  0.67059881  0.13044720     0.29330
C3836       C  0.81270962  0.65001937  0.14617705    -0.21480
C3837       C  0.78942431  0.63752978  0.14588028    -0.09540
C3838       C  0.77187164  0.64386121  0.12735190     0.29340
F3839       F  0.74917771  0.63228418  0.12658037    -0.20060
H3840       H  0.76104700  0.67139771  0.10014133     0.17710
H3841       H  0.82658118  0.64528728  0.16023562     0.17710
F3842       F  0.83836965  0.68437732  0.13379628    -0.20050
C3843       C  0.80747657  0.85442436  0.08746255    -0.21480
C3844       C  0.80735040  0.83522873  0.06936985    -0.09520
C3845       C  0.81337324  0.84096621  0.04447708     0.29330
C3846       C  0.81832116  0.86584716  0.03768117    -0.21480
C3847       C  0.81772683  0.88522692  0.05567826    -0.09540
C3848       C  0.81284568  0.87916738  0.08080355     0.29340
F3849       F  0.81232704  0.89719909  0.09877170    -0.20060
H3850       H  0.80283767  0.85027748  0.10680880     0.17710
H3851       H  0.82253026  0.86998242  0.01825134     0.17710
F3852       F  0.81308733  0.82286381  0.02657450    -0.20050
C3853       C  0.98913731  0.92964540  0.88249854    -0.21480
C3854       C  0.00249032  0.95222950  0.88539554    -0.09520
C3855       C  0.02369091  0.95264903  0.90111472     0.29330
C3856       C  0.02955708  0.93167418  0.91561485    -0.21480
C3857       C  0.01444960  0.91002431  0.91471711    -0.09540
C3858       C  0.99497390  0.90871898  0.89699929     0.29340
F3859       F  0.98056924  0.88780976  0.89462979    -0.20060
H3860       H  0.97306896  0.92858152  0.87012521     0.17710
H3861       H  0.04510996  0.93296634  0.92861299     0.17710
F3862       F  0.03769653  0.97377806  0.90393488    -0.20050
C3863       C  0.06220817  0.01680674  0.85598057    -0.21480
C3864       C  0.05239106  0.04122107  0.85810439    -0.09520
C3865       C  0.06654874  0.05962718  0.87051493     0.29330
C3866       C  0.08855764  0.05301881  0.88309736    -0.21480
C3867       C  0.09661256  0.02791418  0.88381218    -0.09540
C3868       C  0.08418074  0.01009040  0.86887377     0.29340
F3869       F  0.09099459  0.98556258  0.86979982    -0.20060
H3870       H  0.05122037  0.00219230  0.84705859     0.17710
H3871       H  0.09765909  0.06695685  0.89479477     0.17710
F3872       F  0.05740164  0.08325451  0.87316102    -0.20050
C3873       C  0.89529314  0.98315176  0.91115941    -0.21480
C3874       C  0.91324378  0.00219376  0.91370351    -0.09520
C3875       C  0.91490979  0.01562642  0.93624765     0.29330
C3876       C  0.90040146  0.00851981  0.95674889    -0.21480
C3877       C  0.88438834  0.98758454  0.95522024    -0.09540
C3878       C  0.88098551  0.97570359  0.93182285     0.29340
F3879       F  0.86524339  0.95581115  0.92925485    -0.20060
H3880       H  0.89370422  0.97279941  0.89375249     0.17710
H3881       H  0.90305071  0.01839416  0.97430283     0.17710
F3882       F  0.93149056  0.03484575  0.93879197    -0.20050
C3883       C  0.92817511  0.11164106  0.92835179    -0.21480
C3884       C  0.94713347  0.12422818  0.94148522    -0.09520
C3885       C  0.97078191  0.12729590  0.93008553     0.29330
C3886       C  0.97625960  0.11494368  0.90748149    -0.21480
C3887       C  0.95815345  0.09955891  0.89612456    -0.09540
C3888       C  0.93353554  0.09958792  0.90570907     0.29340
F3889       F  0.91564275  0.08483948  0.89511492    -0.20060
H3890       H  0.90999611  0.10872442  0.93699653     0.17710
H3891       H  0.99543959  0.11476067  0.90074078     0.17710
F3892       F  0.98961868  0.13900539  0.94261220    -0.20050
C3893       C  0.72860873  0.16199510  0.68718709    -0.21480
C3894       C  0.73810999  0.15400741  0.66399187    -0.09520
C3895       C  0.74914543  0.13018288  0.66204690     0.29330
C3896       C  0.75298953  0.11584868  0.68373730    -0.21480
C3897       C  0.74527812  0.12494727  0.70728985    -0.09540
C3898       C  0.73207805  0.14772977  0.70861779     0.29340
F3899       F  0.72479939  0.15764189  0.73091951    -0.20060
H3900       H  0.71950307  0.18008616  0.68901975     0.17710
H3901       H  0.76314870  0.09830374  0.68233518     0.17710
F3902       F  0.75783091  0.12165503  0.63971418    -0.20050
C3903       C  0.66300177  0.11814404  0.76505866    -0.21480
C3904       C  0.65013944  0.13241783  0.78308448    -0.09520
C3905       C  0.65773616  0.13075547  0.80826980     0.29330
C3906       C  0.67942539  0.11725063  0.81472067    -0.21480
C3907       C  0.69337211  0.10441877  0.79637873    -0.09540
C3908       C  0.68411021  0.10386191  0.77169409     0.29340
F3909       F  0.69724473  0.09204758  0.75337688    -0.20060
H3910       H  0.65765119  0.11934248  0.74551537     0.17710
H3911       H  0.68658512  0.11866057  0.83366357     0.17710
F3912       F  0.64607087  0.14468567  0.82610361    -0.20050
C3913       C  0.87839985  0.03985843  0.83421062    -0.21480
C3914       C  0.89778741  0.05133048  0.82042113    -0.09520
C3915       C  0.89182182  0.06893044  0.80188863     0.29330
C3916       C  0.86669184  0.07399007  0.79640789    -0.21480
C3917       C  0.84726509  0.06217661  0.80985994    -0.09540
C3918       C  0.85325502  0.04553242  0.82926534     0.29340
F3919       F  0.83486571  0.03382328  0.84245074    -0.20060
H3920       H  0.88277866  0.02628133  0.84866859     0.17710
H3921       H  0.86234447  0.08694351  0.78138262     0.17710
F3922       F  0.91019277  0.08017881  0.78827673    -0.20050
C3923       C  0.01639037  0.71860274  0.98581785    -0.21480
C3924       C  0.99056380  0.71340718  0.98403856    -0.09520
C3925       C  0.97369689  0.73359017  0.98228324     0.29330
C3926       C  0.98270635  0.75833659  0.98068404    -0.21480
C3927       C  0.00859876  0.76345658  0.98160431    -0.09540
C3928       C  0.02534347  0.74338512  0.98504255     0.29340
F3929       F  0.05046873  0.74754450  0.98561971    -0.20060
H3930       H  0.02974005  0.70331783  0.98685152     0.17710
H3931       H  0.96947548  0.77351173  0.97795338     0.17710
F3932       F  0.94869891  0.72926816  0.98002507    -0.20050
C3933       C  0.97471762  0.54423222  0.92069918    -0.21480
C3934       C  0.98948543  0.56601121  0.91987204    -0.09520
C3935       C  0.00892332  0.56765596  0.90206681     0.29330
C3936       C  0.01482903  0.54691140  0.88717281    -0.21480
C3937       C  0.00147151  0.52426353  0.88971697    -0.09540
C3938       C  0.98059157  0.52362532  0.90583781     0.29340
F3939       F  0.96644574  0.50275296  0.90832222    -0.20060
H3940       H  0.95921660  0.54259825  0.93375058     0.17710
H3941       H  0.03076211  0.54821954  0.87462405     0.17710
F3942       F  0.02291165  0.58884282  0.89970763    -0.20050
C3943       C  0.04649397  0.58972215  0.02165947    -0.21480
C3944       C  0.04713239  0.60693176  0.00185939    -0.09520
C3945       C  0.07001411  0.61199214  0.98970188     0.29330
C3946       C  0.09120334  0.59744787  0.99528000    -0.21480
C3947       C  0.08936704  0.57788718  0.01279330    -0.09540
C3948       C  0.06733154  0.57511885  0.02696942     0.29340
F3949       F  0.06508639  0.55657330  0.04425412    -0.20060
H3950       H  0.02904540  0.58579761  0.03137131     0.17710
H3951       H  0.10809351  0.59973753  0.98419929     0.17710
F3952       F  0.07105312  0.62857986  0.97043175    -0.20050
C3953       C  0.93112104  0.60299520  0.06226033    -0.21480
C3954       C  0.94935684  0.62107733  0.05635392    -0.09520
C3955       C  0.96950933  0.62458886  0.07309919     0.29330
C3956       C  0.97319467  0.60798266  0.09318930    -0.21480
C3957       C  0.95699073  0.58748553  0.09665593    -0.09540
C3958       C  0.93498145  0.58614616  0.08206655     0.29340
F3959       F  0.91825211  0.56723536  0.08558964    -0.20060
H3960       H  0.91566304  0.59961863  0.04951296     0.17710
H3961       H  0.99014593  0.60958336  0.10426542     0.17710
F3962       F  0.98755079  0.64182947  0.06787593    -0.20050
C3963       C  0.97882009  0.74719440  0.76203122    -0.21480
C3964       C  0.97398076  0.72125578  0.76083557    -0.09520
C3965       C  0.99430604  0.70484701  0.75728317     0.29330
C3966       C  0.01903256  0.71419504  0.75692738    -0.21480
C3967       C  0.02400630  0.74010614  0.75975508    -0.09540
C3968       C  0.00339426  0.75659494  0.76124340     0.29340
F3969       F  0.00689712  0.78170134  0.76387212    -0.20060
H3970       H  0.96347184  0.76023992  0.76473522     0.17710
H3971       H  0.03438422  0.70095253  0.75570591     0.17710
F3972       F  0.99048067  0.67966443  0.75636610    -0.20050
C3973       C  0.91239290  0.67911455  0.87064242    -0.21480
C3974       C  0.92749705  0.67380234  0.84962193    -0.09520
C3975       C  0.95061565  0.66186579  0.85313881     0.29330
C3976       C  0.95871153  0.65606689  0.87732573    -0.21480
C3977       C  0.94392400  0.66197741  0.89848537    -0.09540
C3978       C  0.92042256  0.67323523  0.89483526     0.29340
F3979       F  0.90517055  0.67854367  0.91450581    -0.20060
H3980       H  0.89433841  0.68815246  0.86834504     0.17710
H3981       H  0.97689649  0.64727906  0.87945650     0.17710
F3982       F  0.96592520  0.65692209  0.83341265    -0.20050
C3983       C  0.81061630  0.59913977  0.77763836    -0.21480
C3984       C  0.80141015  0.60183837  0.80216132    -0.09520
C3985       C  0.81569696  0.61557111  0.81958929     0.29330
C3986       C  0.83788384  0.62772067  0.81211466    -0.21480
C3987       C  0.84566386  0.62711532  0.78696208    -0.09540
C3988       C  0.83228750  0.61202098  0.76994282     0.29340
F3989       F  0.83896325  0.61148177  0.74540064    -0.20060
H3990       H  0.79954598  0.58930456  0.76371168     0.17710
H3991       H  0.84752052  0.63973542  0.82538905     0.17710
F3992       F  0.80696777  0.61912029  0.84322237    -0.20050
C3993       C  0.85633987  0.67457802  0.65856152    -0.21480
C3994       C  0.85842969  0.69899653  0.64867418    -0.09520
C3995       C  0.87524066  0.71587774  0.65983159     0.29330
C3996       C  0.88787594  0.70924927  0.68182380    -0.21480
C3997       C  0.88333416  0.68602217  0.69359225    -0.09540
C3998       C  0.86853276  0.66814112  0.68102837     0.29340
F3999       F  0.86290137  0.64596227  0.69224678    -0.20060
H4000       H  0.84305583  0.66145175  0.65049012     0.17710
H4001       H  0.89871452  0.72354414  0.69143465     0.17710
F4002       F  0.87747889  0.73963815  0.65090378    -0.20050
C4003       C  0.02253313  0.25446936  0.51334492    -0.21480
C4004       C  0.99666828  0.25955702  0.51483183    -0.09520
C4005       C  0.97980867  0.23915483  0.51324857     0.29330
C4006       C  0.98873327  0.21442430  0.51192995    -0.21480
C4007       C  0.01462528  0.20924351  0.51208503    -0.09540
C4008       C  0.03145844  0.22973145  0.51194628     0.29340
F4009       F  0.05663714  0.22597512  0.51188309    -0.20060
H4010       H  0.03604549  0.26965490  0.51424658     0.17710
H4011       H  0.97522013  0.19921210  0.51195882     0.17710
F4012       F  0.95463724  0.24285091  0.51425602    -0.20050
C4013       C  0.00701408  0.40070963  0.60572158    -0.21480
C4014       C  0.99051925  0.40152641  0.58534294    -0.09520
C4015       C  0.97785225  0.42404600  0.57993218     0.29330
C4016       C  0.98343093  0.44591512  0.59309827    -0.21480
C4017       C  0.00201845  0.44591717  0.61168140    -0.09540
C4018       C  0.01283888  0.42278003  0.61883975     0.29340
F4019       F  0.03020515  0.42168923  0.63738691    -0.20060
H4020       H  0.01686755  0.38351116  0.61018980     0.17710
H4021       H  0.97447251  0.46320755  0.58737473     0.17710
F4022       F  0.96127830  0.42532451  0.56066941    -0.20050
C4023       C  0.06863938  0.37162625  0.52056342    -0.21480
C4024       C  0.04988481  0.36798919  0.50229371    -0.09520
C4025       C  0.05484112  0.37499798  0.47739308     0.29330
C4026       C  0.07714821  0.38757716  0.47155652    -0.21480
C4027       C  0.09470433  0.39310890  0.49037899    -0.09540
C4028       C  0.09074466  0.38435320  0.51473878     0.29340
F4029       F  0.10679928  0.39070458  0.53345120    -0.20060
H4030       H  0.06537510  0.36651552  0.53993944     0.17710
H4031       H  0.07983441  0.39476280  0.45274402     0.17710
F4032       F  0.03761900  0.37107742  0.45908241    -0.20050
C4033       C  0.97928000  0.34543822  0.43276206    -0.21480
C4034       C  0.95562164  0.34663805  0.44439083    -0.09520
C4035       C  0.93601107  0.35905246  0.43200254     0.29330
C4036       C  0.94080360  0.37269531  0.41012976    -0.21480
C4037       C  0.96520325  0.37420307  0.40026878    -0.09540
C4038       C  0.98411341  0.35915472  0.41077804     0.29340
F4039       F  0.00802059  0.36071619  0.40212416    -0.20060
H4040       H  0.99482548  0.33658772  0.44237752     0.17710
H4041       H  0.92605275  0.38440481  0.40250302     0.17710
F4042       F  0.91310007  0.36092950  0.44297397    -0.20050
C4043       C  0.89827930  0.39945922  0.55943769    -0.21480
C4044       C  0.89833919  0.38627921  0.53660218    -0.09520
C4045       C  0.87841732  0.39002199  0.51981508     0.29330
C4046       C  0.86096910  0.40924531  0.52425313    -0.21480
C4047       C  0.86300873  0.42477486  0.54554358    -0.09540
C4048       C  0.88049143  0.41823617  0.56412529     0.29340
F4049       F  0.88320961  0.43279319  0.58483324    -0.20060
H4050       H  0.91327222  0.39659649  0.57283531     0.17710
H4051       H  0.84796508  0.41416579  0.50945718     0.17710
F4052       F  0.87775876  0.37754454  0.49765250    -0.20050
C4053       C  0.97768448  0.22047819  0.73473550    -0.21480
C4054       C  0.97279330  0.24645788  0.73370317    -0.09520
C4055       C  0.99335815  0.26311356  0.73431087     0.29330
C4056       C  0.01796330  0.25392423  0.73446140    -0.21480
C4057       C  0.02289984  0.22794630  0.73391336    -0.09540
C4058       C  0.00235707  0.21127699  0.73483245     0.29340
F4059       F  0.00595504  0.18606035  0.73475268    -0.20060
H4060       H  0.96235572  0.20710433  0.73445867     0.17710
H4061       H  0.03323606  0.26735631  0.73395843     0.17710
F4062       F  0.98988781  0.28834513  0.73352843    -0.20050
C4063       C  0.83530885  0.23811099  0.64059067    -0.21480
C4064       C  0.83281424  0.25268815  0.66227852    -0.09520
C4065       C  0.80995971  0.26500448  0.66705047     0.29330
C4066       C  0.78918414  0.26052887  0.65190877    -0.21480
C4067       C  0.79069175  0.24329126  0.63211178    -0.09540
C4068       C  0.81431800  0.23328554  0.62558063     0.29340
F4069       F  0.81675819  0.21744604  0.60580668    -0.20060
H4070       H  0.85291529  0.22888178  0.63638655     0.17710
H4071       H  0.77139078  0.26882760  0.65714979     0.17710
F4072       F  0.80723858  0.28016306  0.68732638    -0.20050
C4073       C  0.81508381  0.35649054  0.67529895    -0.21480
C4074       C  0.80370846  0.37210078  0.69309489    -0.09520
C4075       C  0.81598448  0.37638899  0.71605621     0.29330
C4076       C  0.83749117  0.36249485  0.72231587    -0.21480
C4077       C  0.84677043  0.34432904  0.70567258    -0.09540
C4078       C  0.83644380  0.34271770  0.68147009     0.29340
F4079       F  0.84504227  0.32535582  0.66493730    -0.20060
H4080       H  0.80571705  0.35265354  0.65768775     0.17710
H4081       H  0.84493891  0.36375599  0.74115603     0.17710
F4082       F  0.80509460  0.39103177  0.73380367    -0.20050
C4083       C  0.86787737  0.17428838  0.73930365    -0.21480
C4084       C  0.86155670  0.19715322  0.75103910    -0.09520
C4085       C  0.84262408  0.19721469  0.76941676     0.29330
C4086       C  0.82849068  0.17562001  0.77364199    -0.21480
C4087       C  0.83318224  0.15355068  0.76005962    -0.09540
C4088       C  0.85386467  0.15251171  0.74389028     0.29340
F4089       F  0.85899791  0.13128709  0.73079602    -0.20060
H4090       H  0.88259914  0.17363965  0.72531361     0.17710
H4091       H  0.81284145  0.17654126  0.78659502     0.17710
F4092       F  0.83611274  0.21859630  0.78164626    -0.20050
C4093       C  0.94884881  0.28506084  0.63788807    -0.21480
C4094       C  0.92925512  0.29835409  0.64926657    -0.09520
C4095       C  0.91558461  0.31587888  0.63505183     0.29330
C4096       C  0.92150035  0.31972916  0.60969564    -0.21480
C4097       C  0.94125280  0.30636132  0.59843874    -0.09540
C4098       C  0.95488633  0.28899565  0.61289034     0.29340
F4099       F  0.97406031  0.27556602  0.60284576    -0.20060
H4100       H  0.95949788  0.27131720  0.64840394     0.17710
H4101       H  0.91103854  0.33348439  0.59903313     0.17710
F4102       F  0.89611409  0.32860080  0.64537592    -0.20050
C4103       C  0.97988475  0.96141768  0.74407042    -0.21480
C4104       C  0.98657822  0.97740350  0.72424455    -0.09520
C4105       C  0.99332823  0.00240395  0.72976371     0.29330
C4106       C  0.99168346  0.01152162  0.75433774    -0.21480
C4107       C  0.98340799  0.99594354  0.77393074    -0.09540
C4108       C  0.97819035  0.97049817  0.76859926     0.29340
F4109       F  0.96977579  0.95467302  0.78670210    -0.20060
H4110       H  0.97440147  0.94216963  0.74040881     0.17710
H4111       H  0.99614555  0.03104998  0.75788776     0.17710
F4112       F  0.00072462  0.01830934  0.71130016    -0.20050
C4113       C  0.03287671  0.05616782  0.59502852    -0.21480
C4114       C  0.01639141  0.07666372  0.59437927    -0.09520
C4115       C  0.99428696  0.07596584  0.60851743     0.29330
C4116       C  0.98745585  0.05381098  0.62082040    -0.21480
C4117       C  0.00253404  0.03215503  0.61889779    -0.09540
C4118       C  0.02615059  0.03406275  0.60727010     0.29340
F4119       F  0.04178763  0.01401663  0.60574460    -0.20060
H4120       H  0.04998595  0.05647388  0.58404266     0.17710
H4121       H  0.96932026  0.05301905  0.62996012     0.17710
F4122       F  0.97791020  0.09544251  0.60782357    -0.20050
C4123       C  0.06866648  0.95907074  0.63477765    -0.21480
C4124       C  0.05560460  0.93623600  0.63220041    -0.09520
C4125       C  0.06678020  0.91675567  0.61844314     0.29330
C4126       C  0.08913839  0.92095846  0.60531423    -0.21480
C4127       C  0.10073260  0.94468803  0.60550434    -0.09540
C4128       C  0.09113040  0.96332760  0.62153104     0.29340
F4129       F  0.10136557  0.98667925  0.62160942    -0.20060
H4130       H  0.06002856  0.97458291  0.64467294     0.17710
H4131       H  0.09600090  0.90642365  0.59286455     0.17710
F4132       F  0.05447856  0.89464771  0.61522778    -0.20050
C4133       C  0.91591844  0.96061597  0.56567028    -0.21480
C4134       C  0.91255236  0.97560997  0.58697528    -0.09520
C4135       C  0.89300660  0.99322662  0.58760540     0.29330
C4136       C  0.87895089  0.99774326  0.56587796    -0.21480
C4137       C  0.88444679  0.98462551  0.54369321    -0.09540
C4138       C  0.90189335  0.96494363  0.54420179     0.29340
F4139       F  0.90697615  0.95144135  0.52321160    -0.20060
H4140       H  0.93071357  0.94669741  0.56506470     0.17710
H4141       H  0.86562410  0.01307813  0.56570600     0.17710
F4142       F  0.88945006  0.00788297  0.60809838    -0.20050
C4143       C  0.77503347  0.96675989  0.76546315    -0.21480
C4144       C  0.76708798  0.96034000  0.74111656    -0.09520
C4145       C  0.75710839  0.97956492  0.72594437     0.29330
C4146       C  0.75649278  0.00463924  0.73455912    -0.21480
C4147       C  0.76522805  0.01107279  0.75867648    -0.09540
C4148       C  0.77403005  0.99157895  0.77419929     0.29340
F4149       F  0.78332850  0.99665008  0.79733046    -0.20060
H4150       H  0.78282646  0.95253356  0.77768183     0.17710
H4151       H  0.74970849  0.01916590  0.72209972     0.17710
F4152       F  0.74928110  0.97445430  0.70230396    -0.20050
C4153       C  0.87255531  0.89406916  0.69205086    -0.21480
C4154       C  0.85290724  0.91163554  0.69010719    -0.09520
C4155       C  0.85804166  0.93567432  0.68076087     0.29330
C4156       C  0.88268215  0.94235320  0.67474008    -0.21480
C4157       C  0.90246062  0.92504979  0.67746748    -0.09540
C4158       C  0.89710645  0.90058528  0.68554665     0.29340
F4159       F  0.91568504  0.88341092  0.68833929    -0.20060
H4160       H  0.86893407  0.87533563  0.69912768     0.17710
H4161       H  0.88637495  0.96124443  0.66814512     0.17710
F4162       F  0.83958624  0.95308858  0.67878748    -0.20050
C4163       C  0.85462176  0.81877814  0.75368849    -0.21480
C4164       C  0.83767724  0.81614131  0.73364225    -0.09520
C4165       C  0.83854867  0.79428376  0.71881438     0.29330
C4166       C  0.85366968  0.77430735  0.72604561    -0.21480
C4167       C  0.86827177  0.77598610  0.74777445    -0.09540
C4168       C  0.86992175  0.79876536  0.76074334     0.29340
F4169       F  0.88383498  0.80060167  0.78196090    -0.20060
H4170       H  0.85470466  0.83561658  0.76507549     0.17710
H4171       H  0.85231551  0.75669699  0.71593282     0.17710
F4172       F  0.82316317  0.79115533  0.69878885    -0.20050
C4173       C  0.81197474  0.82386191  0.64289388    -0.21480
C4174       C  0.78810429  0.83509355  0.64183233    -0.09520
C4175       C  0.77059086  0.82575056  0.62455602     0.29330
C4176       C  0.77603229  0.80427554  0.61034990    -0.21480
C4177       C  0.79875710  0.79118529  0.61354073    -0.09540
C4178       C  0.81726509  0.80199046  0.62898746     0.29340
F4179       F  0.83893655  0.78943946  0.63352014    -0.20060
H4180       H  0.82557175  0.83039444  0.65650751     0.17710
H4181       H  0.76119024  0.79604941  0.59914626     0.17710
F4182       F  0.74728357  0.83589516  0.62325859    -0.20050
C4183       C  0.68199411  0.87207271  0.72238683    -0.21480
C4184       C  0.69628928  0.86764935  0.70063080    -0.09520
C4185       C  0.68716013  0.85026562  0.68298253     0.29330
C4186       C  0.66579267  0.83573576  0.68839396    -0.21480
C4187       C  0.65333154  0.83823130  0.71147914    -0.09540
C4188       C  0.66084407  0.85736580  0.72791084     0.29340
F4189       F  0.64925929  0.86014768  0.75039174    -0.20060
H4190       H  0.68902770  0.88477387  0.73662046     0.17710
H4191       H  0.66052357  0.82078282  0.67566448     0.17710
F4192       F  0.70103567  0.84454641  0.66242020    -0.20050
C4193       C  0.52223875  0.96742870  0.22450812    -0.21480
C4194       C  0.51269344  0.99156670  0.21949456    -0.09520
C4195       C  0.50378828  0.00593399  0.23982511     0.29330
C4196       C  0.50554480  0.99673589  0.26449578    -0.21480
C4197       C  0.51599924  0.97298220  0.26944370    -0.09540
C4198       C  0.52401586  0.95828609  0.24903141     0.29340
F4199       F  0.53529942  0.93576037  0.25281191    -0.20060
H4200       H  0.52966223  0.95595925  0.20947973     0.17710
H4201       H  0.49916883  0.00843466  0.27982913     0.17710
F4202       F  0.49388935  0.02906457  0.23597985    -0.20050
C4203       C  0.60576553  0.99620299  0.40770218    -0.21480
C4204       C  0.59114759  0.97427416  0.40804852    -0.09520
C4205       C  0.59174515  0.95878115  0.42932066     0.29330
C4206       C  0.60509621  0.96603181  0.45060842    -0.21480
C4207       C  0.61798078  0.98909289  0.45130973    -0.09540
C4208       C  0.61909387  0.00365500  0.42919664     0.29340
F4209       F  0.63136198  0.02600077  0.42883428    -0.20060
H4210       H  0.60527308  0.00848190  0.39162368     0.17710
H4211       H  0.60398859  0.95430317  0.46696588     0.17710
F4212       F  0.57799562  0.93730097  0.43011707    -0.20050
C4213       C  0.51367318  0.04721541  0.37388895    -0.21480
C4214       C  0.50216623  0.02461643  0.38157122    -0.09520
C4215       C  0.48480838  0.02521342  0.40142179     0.29330
C4216       C  0.48144431  0.04723282  0.41500652    -0.21480
C4217       C  0.49486406  0.06907979  0.40888033    -0.09540
C4218       C  0.50996666  0.06941819  0.38740987     0.29340
F4219       F  0.52294311  0.09039008  0.38097069    -0.20060
H4220       H  0.52688550  0.04735580  0.35845616     0.17710
H4221       H  0.46934805  0.04681665  0.43133203     0.17710
F4222       F  0.47280076  0.00412164  0.40927454    -0.20050
C4223       C  0.43738513  0.95844999  0.36091409    -0.21480
C4224       C  0.44772436  0.93430175  0.36294951    -0.09520
C4225       C  0.43468924  0.91609454  0.37702061     0.29330
C4226       C  0.41274468  0.92247857  0.39013910    -0.21480
C4227       C  0.40392875  0.94731031  0.39016896    -0.09540
C4228       C  0.41589512  0.96503478  0.37466394     0.29340
F4229       F  0.40797627  0.98921971  0.37437048    -0.20060
H4230       H  0.44748750  0.97299583  0.35088931     0.17710
H4231       H  0.40414686  0.90864300  0.40232325     0.17710
F4232       F  0.44461946  0.89284974  0.38015590    -0.20050
C4233       C  0.51662101  0.88533542  0.42271686    -0.21480
C4234       C  0.52996226  0.87802904  0.40156134    -0.09520
C4235       C  0.54643984  0.85736833  0.40323950     0.29330
C4236       C  0.55020103  0.84525245  0.42660736    -0.21480
C4237       C  0.53897769  0.85504939  0.44844341    -0.09540
C4238       C  0.52246446  0.87561000  0.44588542     0.29340
F4239       F  0.51466063  0.88921300  0.46583532    -0.20060
H4240       H  0.50453687  0.90171353  0.42203022     0.17710
H4241       H  0.56370104  0.83015436  0.42802535     0.17710
F4242       F  0.56027341  0.85036888  0.38307978    -0.20050
C4243       C  0.70578070  0.99712029  0.25336410    -0.21480
C4244       C  0.72663544  0.00839613  0.24166530    -0.09520
C4245       C  0.74923837  0.99460316  0.24052857     0.29330
C4246       C  0.75053069  0.97006123  0.25066564    -0.21480
C4247       C  0.72924332  0.95890122  0.26171484    -0.09540
C4248       C  0.70696596  0.97285359  0.26302979     0.29340
F4249       F  0.68599267  0.96278039  0.27348392    -0.20060
H4250       H  0.68804396  0.00693844  0.25465780     0.17710
H4251       H  0.76780884  0.95950487  0.24910630     0.17710
F4252       F  0.76995116  0.00472369  0.22970021    -0.20050
C4253       C  0.77687829  0.83827044  0.20682290    -0.21480
C4254       C  0.75495955  0.85269739  0.20591548    -0.09520
C4255       C  0.74135922  0.85439587  0.18354758     0.29330
C4256       C  0.74762271  0.83881534  0.16349887    -0.21480
C4257       C  0.76750244  0.82161090  0.16571229    -0.09540
C4258       C  0.78329182  0.82284934  0.18682038     0.29340
F4259       F  0.80337820  0.80741789  0.18937168    -0.20060
H4260       H  0.78763020  0.83704843  0.22401816     0.17710
H4261       H  0.73562485  0.83874995  0.14712707     0.17710
F4262       F  0.72015007  0.86841383  0.18228352    -0.20050
C4263       C  0.66951827  0.79005694  0.28021672    -0.21480
C4264       C  0.67105466  0.81067347  0.26387588    -0.09520
C4265       C  0.65414681  0.81232380  0.24370539     0.29330
C4266       C  0.63792593  0.79250957  0.23860145    -0.21480
C4267       C  0.63836500  0.77065367  0.25329556    -0.09540
C4268       C  0.65329855  0.77015278  0.27504127     0.29340
F4269       F  0.65354965  0.74983050  0.29039021    -0.20060
H4270       H  0.68178599  0.78869140  0.29633654     0.17710
H4271       H  0.62628961  0.79364225  0.22201044     0.17710
F4272       F  0.65415420  0.83237126  0.22798904    -0.20050
C4273       C  0.69186097  0.82031830  0.35096394    -0.21480
C4274       C  0.71636654  0.82957989  0.35395433    -0.09520
C4275       C  0.73241728  0.81753496  0.37105223     0.29330
C4276       C  0.72443674  0.79588186  0.38390743    -0.21480
C4277       C  0.70066931  0.78538415  0.37924102    -0.09540
C4278       C  0.68422286  0.79819145  0.36306399     0.29340
F4279       F  0.66161690  0.78800358  0.35716657    -0.20060
H4280       H  0.67942038  0.82885343  0.33736956     0.17710
H4281       H  0.73777207  0.78588753  0.39551155     0.17710
F4282       F  0.75636970  0.82569014  0.37397753    -0.20050
C4283       C  0.62949274  0.88877228  0.30131127    -0.21480
C4284       C  0.64969835  0.90467580  0.30770435    -0.09520
C4285       C  0.64478683  0.92723047  0.32033827     0.29330
C4286       C  0.62003694  0.93433614  0.32506378    -0.21480
C4287       C  0.59990425  0.91887568  0.31777719    -0.09540
C4288       C  0.60479050  0.89570634  0.30643380     0.29340
F4289       F  0.58572971  0.88044191  0.29912436    -0.20060
H4290       H  0.63277549  0.87114385  0.29172499     0.17710
H4291       H  0.61655187  0.95212511  0.33427924     0.17710
F4292       F  0.66369543  0.94293359  0.32706211    -0.20050
C4293       C  0.72779041  0.97502848  0.01222266    -0.21480
C4294       C  0.72256912  0.97362869  0.98641125    -0.09520
C4295       C  0.74290987  0.97367089  0.96950305     0.29330
C4296       C  0.76765030  0.97323426  0.97837366    -0.21480
C4297       C  0.77281240  0.97271702  0.00423782    -0.09540
C4298       C  0.75251428  0.97456109  0.02109032     0.29340
F4299       F  0.75633483  0.97457240  0.04622807    -0.20060
H4300       H  0.71264725  0.97524753  0.02576945     0.17710
H4301       H  0.78277587  0.97207989  0.96485768     0.17710
F4302       F  0.73903536  0.97274639  0.94438780    -0.20050
C4303       C  0.56856527  0.89215356  0.97064356    -0.21480
C4304       C  0.58658181  0.89647179  0.98929445    -0.09520
C4305       C  0.58392283  0.88494601  0.01278278     0.29330
C4306       C  0.56248902  0.87061653  0.01800029    -0.21480
C4307       C  0.54355554  0.86797204  0.99990854    -0.09540
C4308       C  0.54716049  0.87796596  0.97587155     0.29340
F4309       F  0.52908511  0.87558437  0.95811381    -0.20060
H4310       H  0.57024577  0.90125115  0.95256460     0.17710
H4311       H  0.55960649  0.86356400  0.03682964     0.17710
F4312       F  0.60058689  0.88978552  0.03139203    -0.20050
C4313       C  0.62005741  0.97689022  0.06143958    -0.21480
C4314       C  0.61415801  0.98929052  0.03883874    -0.09520
C4315       C  0.59787581  0.01002960  0.03954232     0.29330
C4316       C  0.58544752  0.01600506  0.06169504    -0.21480
C4317       C  0.58905267  0.00158838  0.08341875    -0.09540
C4318       C  0.60754191  0.98298077  0.08366835     0.29340
F4319       F  0.61137703  0.96883947  0.10445802    -0.20060
H4320       H  0.63287967  0.96113482  0.06155391     0.17710
H4321       H  0.57132066  0.03062174  0.06133667     0.17710
F4322       F  0.59205434  0.02305828  0.01846786    -0.20050
C4323       C  0.63326893  0.05056715  0.96960014    -0.21480
C4324       C  0.63116374  0.03938792  0.94580397    -0.09520
C4325       C  0.61824338  0.05231252  0.92689331     0.29330
C4326       C  0.60552476  0.07462779  0.93240691    -0.21480
C4327       C  0.60524829  0.08435751  0.95690605    -0.09540
C4328       C  0.62034855  0.07288839  0.97519763     0.29340
F4329       F  0.61968458  0.08110862  0.99926187    -0.20060
H4330       H  0.64245981  0.04051460  0.98465936     0.17710
H4331       H  0.59362925  0.08285706  0.91815082     0.17710
F4332       F  0.61549118  0.04183021  0.90387153    -0.20050
C4333       C  0.76436410  0.74752123  0.97949027    -0.21480
C4334       C  0.73837845  0.74796611  0.97498937    -0.09520
C4335       C  0.72181164  0.74637820  0.99541757     0.29330
C4336       C  0.73117102  0.74647556  0.01995216    -0.21480
C4337       C  0.75714783  0.74733830  0.02446498    -0.09540
C4338       C  0.77372801  0.74682725  0.00399796     0.29340
F4339       F  0.79889691  0.74807794  0.00767986    -0.20060
H4340       H  0.77743547  0.74885758  0.96398320     0.17710
H4341       H  0.71809315  0.74705129  0.03549754     0.17710
F4342       F  0.69662658  0.74709228  0.99175337    -0.20050
C4343       C  0.69887820  0.84711068  0.94958105    -0.21480
C4344       C  0.68910763  0.83563069  0.92820920    -0.09520
C4345       C  0.67436509  0.84966828  0.91150719     0.29330
C4346       C  0.66918558  0.87498171  0.91646292    -0.21480
C4347       C  0.67898293  0.88663257  0.93796800    -0.09540
C4348       C  0.69398623  0.87232980  0.95448967     0.29340
F4349       F  0.70447759  0.88275823  0.97520624    -0.20060
H4350       H  0.71108070  0.83671698  0.96205849     0.17710
H4351       H  0.65745243  0.88539966  0.90358642     0.17710
F4352       F  0.66548000  0.83899656  0.89018250    -0.20050
C4353       C  0.81180709  0.75402765  0.86193906    -0.21480
C4354       C  0.79271972  0.73684825  0.86732978    -0.09520
C4355       C  0.79434906  0.71215993  0.85833047     0.29330
C4356       C  0.81403178  0.70530569  0.84246715    -0.21480
C4357       C  0.83206847  0.72314787  0.83519717    -0.09540
C4358       C  0.83134191  0.74737332  0.84590831     0.29340
F4359       F  0.84808171  0.76540522  0.83918809    -0.20060
H4360       H  0.81032085  0.77332298  0.86822677     0.17710
H4361       H  0.81436772  0.68647236  0.83479068     0.17710
F4362       F  0.77589871  0.69530127  0.86339794    -0.20050
C4363       C  0.72137557  0.66488506  0.89048311    -0.21480
C4364       C  0.69904811  0.67875548  0.88778126    -0.09520
C4365       C  0.67902593  0.66795509  0.87455106     0.29330
C4366       C  0.68280043  0.64577502  0.86092991    -0.21480
C4367       C  0.70641426  0.63393725  0.86064607    -0.09540
C4368       C  0.72505675  0.64252577  0.87710886     0.29340
F4369       F  0.74812453  0.63175640  0.87714747    -0.20060
H4370       H  0.73716674  0.67303820  0.90036554     0.17710
H4371       H  0.66819153  0.63949473  0.84826792     0.17710
F4372       F  0.65735665  0.68090690  0.87131056    -0.20050
C4373       C  0.64296535  0.79494684  0.83942401    -0.21480
C4374       C  0.64155754  0.77090737  0.85025165    -0.09520
C4375       C  0.62476145  0.75331764  0.84020239     0.29330
C4376       C  0.61160205  0.75880271  0.81821368    -0.21480
C4377       C  0.61561088  0.78155714  0.80539395    -0.09540
C4378       C  0.63018395  0.80025188  0.81700559     0.29340
F4379       F  0.63515167  0.82206800  0.80481821    -0.20060
H4380       H  0.65620577  0.80859528  0.84665504     0.17710
H4381       H  0.60089895  0.74391943  0.80937272     0.17710
F4382       F  0.62316695  0.72989113  0.85010473    -0.20050
C4383       C  0.75474748  0.83624933  0.83485662    -0.21480
C4384       C  0.73468612  0.81929802  0.83154942    -0.09520
C4385       C  0.72091106  0.82003293  0.80908162     0.29330
C4386       C  0.72908527  0.83513056  0.78937232    -0.21480
C4387       C  0.75069996  0.84996852  0.79188798    -0.09540
C4388       C  0.76271917  0.85156171  0.81514264     0.29340
F4389       F  0.78377447  0.86565869  0.81792889    -0.20060
H4390       H  0.76538158  0.83646465  0.85214037     0.17710
H4391       H  0.71960186  0.83384571  0.77145170     0.17710
F4392       F  0.70085752  0.80474700  0.80530377    -0.20050
C4393       C  0.73969738  0.35917751  0.80993476    -0.21480
C4394       C  0.75258779  0.35363370  0.78750242    -0.09520
C4395       C  0.77260978  0.33645461  0.78826857     0.29330
C4396       C  0.77746966  0.32306560  0.81018412    -0.21480
C4397       C  0.76290690  0.32684909  0.83178205    -0.09540
C4398       C  0.74486212  0.34593143  0.83199394     0.29340
F4399       F  0.73057438  0.35000361  0.85265270    -0.20060
H4400       H  0.72440369  0.37254134  0.81003057     0.17710
H4401       H  0.79173665  0.30858562  0.80987224     0.17710
F4402       F  0.78616970  0.33098455  0.76742725    -0.20050
C4403       C  0.85574923  0.30477432  0.83524759    -0.21480
C4404       C  0.85607390  0.28049254  0.84551903    -0.09520
C4405       C  0.87315370  0.26283240  0.83596938     0.29330
C4406       C  0.88717974  0.26850570  0.81437238    -0.21480
C4407       C  0.88418080  0.29173092  0.80219824    -0.09540
C4408       C  0.86962894  0.31037813  0.81375619     0.29340
F4409       F  0.86607446  0.33284107  0.80227160    -0.20060
H4410       H  0.84259178  0.31860532  0.84225169     0.17710
H4411       H  0.89777374  0.25366158  0.80539570     0.17710
F4412       F  0.87354759  0.23908305  0.84516978    -0.20050
C4413       C  0.70815153  0.21491931  0.85122297    -0.21480
C4414       C  0.70853508  0.23855366  0.86293567    -0.09520
C4415       C  0.68685125  0.25359965  0.86218087     0.29330
C4416       C  0.66642440  0.24629326  0.84768643    -0.21480
C4417       C  0.66722530  0.22403077  0.83361074    -0.09540
C4418       C  0.68767652  0.20764273  0.83665187     0.29340
F4419       F  0.68866279  0.18532704  0.82440836    -0.20060
H4420       H  0.72437716  0.20270951  0.85197133     0.17710
H4421       H  0.65067341  0.25902672  0.84617380     0.17710
F4422       F  0.68603464  0.27636723  0.87360560    -0.20050
C4423       C  0.81803319  0.17395849  0.86678393    -0.21480
C4424       C  0.79952359  0.18582913  0.88122238    -0.09520
C4425       C  0.77589657  0.17413473  0.88361336     0.29330
C4426       C  0.77022191  0.15242771  0.86960177    -0.21480
C4427       C  0.78801265  0.14228379  0.85300583    -0.09540
C4428       C  0.81240767  0.15244469  0.85283199     0.29340
F4429       F  0.83004682  0.14317777  0.83696619    -0.20060
H4430       H  0.83613559  0.18289311  0.86418944     0.17710
H4431       H  0.75117707  0.14529148  0.86964236     0.17710
F4432       F  0.75729502  0.18557931  0.89669275    -0.20050
C4433       C  0.93374095  0.40975935  0.98534079    -0.21480
C4434       C  0.91079662  0.40292558  0.99621953    -0.09520
C4435       C  0.90913189  0.38065692  0.01016638     0.29330
C4436       C  0.93093888  0.36669906  0.01495318    -0.21480
C4437       C  0.95430033  0.37465206  0.00539304    -0.09540
C4438       C  0.95524977  0.39590627  0.98977459     0.29340
F4439       F  0.97729381  0.40477754  0.98051782    -0.20060
H4440       H  0.93531550  0.42677542  0.97429863     0.17710
H4441       H  0.92976996  0.35035064  0.02696705     0.17710
F4442       F  0.88703578  0.37350682  0.02062867    -0.20050
C4443       C  0.90698375  0.44559535  0.88138756    -0.21480
C4444       C  0.90958514  0.45466983  0.90616921    -0.09520
C4445       C  0.93375257  0.45874834  0.91555410     0.29330
C4446       C  0.95451650  0.45186027  0.90197810    -0.21480
C4447       C  0.95273966  0.44195926  0.87766259    -0.09540
C4448       C  0.92863892  0.43950197  0.86694726     0.29340
F4449       F  0.92595046  0.42992666  0.84356005    -0.20060
H4450       H  0.88848006  0.44219618  0.87374325     0.17710
H4451       H  0.97244579  0.45423338  0.91121467     0.17710
F4452       F  0.93754215  0.46873615  0.93871029    -0.20050
C4453       C  0.87430570  0.47711615  0.07072698    -0.21480
C4454       C  0.87986465  0.48990497  0.04825007    -0.09520
C4455       C  0.89939975  0.50771437  0.04812444     0.29330
C4456       C  0.91495686  0.51003190  0.06884748    -0.21480
C4457       C  0.91091444  0.49547529  0.09034607    -0.09540
C4458       C  0.88966010  0.48003974  0.09182308     0.29340
F4459       F  0.88521404  0.46600508  0.11258092    -0.20060
H4460       H  0.85924105  0.46345554  0.07140061     0.17710
H4461       H  0.93114652  0.52228687  0.06754642     0.17710
F4462       F  0.90525826  0.52102654  0.02721311    -0.20050
C4463       C  0.86520459  0.55315680  0.97941742    -0.21480
C4464       C  0.86601345  0.54267859  0.95525542    -0.09520
C4465       C  0.88007124  0.55511972  0.93665216     0.29330
C4466       C  0.89431373  0.57652513  0.94258655    -0.21480
C4467       C  0.89549520  0.58537677  0.96734705    -0.09540
C4468       C  0.88007074  0.57408266  0.98554623     0.29340
F4469       F  0.88082641  0.58212188  0.00966448    -0.20060
H4470       H  0.85529113  0.54345119  0.99428514     0.17710
H4471       H  0.90639873  0.58462020  0.92837579     0.17710
F4472       F  0.88229484  0.54488811  0.91346075    -0.20050
C4473       C  0.81741359  0.38297934  0.91636545    -0.21480
C4474       C  0.82271526  0.38878074  0.94146149    -0.09520
C4475       C  0.82496805  0.36902008  0.95896391     0.29330
C4476       C  0.82078255  0.34419502  0.95168989    -0.21480
C4477       C  0.81443257  0.33860859  0.92693866    -0.09540
C4478       C  0.81300438  0.35805744  0.90917906     0.29340
F4479       F  0.80633786  0.35302150  0.88515260    -0.20060
H4480       H  0.81578764  0.39778534  0.90255444     0.17710
H4481       H  0.82163351  0.32938937  0.96558925     0.17710
F4482       F  0.83113161  0.37364682  0.98320433    -0.20050
C4483       C  0.99720215  0.54485325  0.38712527    -0.21480
C4484       C  0.00920864  0.52171939  0.39099009    -0.09520
C4485       C  0.02929009  0.52062384  0.40818035     0.29330
C4486       C  0.03524718  0.54153452  0.42292124    -0.21480
C4487       C  0.02142823  0.56388825  0.42079572    -0.09540
C4488       C  0.00322500  0.56574127  0.40175706     0.29340
F4489       F  0.99029071  0.58735316  0.39801031    -0.20060
H4490       H  0.98208739  0.54649258  0.37367159     0.17710
H4491       H  0.04970747  0.53967719  0.43704437     0.17710
F4492       F  0.04209603  0.49895786  0.41207272    -0.20050
C4493       C  0.12481141  0.58117236  0.45552338    -0.21480
C4494       C  0.10222250  0.58052144  0.46938039    -0.09520
C4495       C  0.09181198  0.55709501  0.47563118     0.29330
C4496       C  0.10293358  0.53528329  0.46787329    -0.21480
C4497       C  0.12546188  0.53526727  0.45440569    -0.09540
C4498       C  0.13675827  0.55846173  0.44840986     0.29340
F4499       F  0.15841383  0.55919263  0.43506570    -0.20060
H4500       H  0.13313716  0.59900744  0.45041263     0.17710
H4501       H  0.09330163  0.51799400  0.47257006     0.17710
F4502       F  0.07001361  0.55483452  0.48868890    -0.20050
C4503       C  0.93727996  0.60007223  0.49693316    -0.21480
C4504       C  0.96139226  0.59344144  0.50491014    -0.09520
C4505       C  0.96447263  0.57294741  0.52126682     0.29330
C4506       C  0.94411523  0.55780333  0.52736447    -0.21480
C4507       C  0.92045783  0.56264160  0.51702038    -0.09540
C4508       C  0.91682929  0.58469678  0.50288169     0.29340
F4509       F  0.89384150  0.59069426  0.49376775    -0.20060
H4510       H  0.93457988  0.61590390  0.48448499     0.17710
H4511       H  0.94733054  0.54124431  0.53869710     0.17710
F4512       F  0.98754914  0.56646062  0.52988880    -0.20050
C4513       C  0.02927422  0.63024571  0.57188098    -0.21480
C4514       C  0.05119194  0.62813092  0.55727578    -0.09520
C4515       C  0.07079634  0.61298118  0.56617447     0.29330
C4516       C  0.06657128  0.59665690  0.58632115    -0.21480
C4517       C  0.04307974  0.59586283  0.59833370    -0.09540
C4518       C  0.02518070  0.61423230  0.59234248     0.29340
F4519       F  0.00233946  0.61416999  0.60360782    -0.20060
H4520       H  0.01379889  0.64159475  0.56521795     0.17710
H4521       H  0.08078133  0.58286305  0.59087812     0.17710
F4522       F  0.09220040  0.61045180  0.55260318    -0.20050
C4523       C  0.17062868  0.71135491  0.35305459    -0.21480
C4524       C  0.15427376  0.73082952  0.34614790    -0.09520
C4525       C  0.16085742  0.75572944  0.35131522     0.29330
C4526       C  0.18409690  0.76118002  0.36185626    -0.21480
C4527       C  0.20148100  0.74194497  0.36680745    -0.09540
C4528       C  0.19419173  0.71683053  0.36334827     0.29340
F4529       F  0.21019537  0.69778305  0.36870840    -0.20060
H4530       H  0.16608630  0.69207796  0.34835697     0.17710
H4531       H  0.18925066  0.78072794  0.36419094     0.17710
F4532       F  0.14620534  0.77491674  0.34318877    -0.20050
C4533       C  0.18173833  0.60427048  0.29936983    -0.21480
C4534       C  0.20312826  0.61303796  0.28652340    -0.09520
C4535       C  0.20052227  0.63358299  0.27006431     0.29330
C4536       C  0.17769524  0.64526878  0.26685703    -0.21480
C4537       C  0.15706355  0.63836525  0.28126375    -0.09540
C4538       C  0.15873161  0.61730640  0.29715784     0.29340
F4539       F  0.13895096  0.61061602  0.31172190    -0.20060
H4540       H  0.18335426  0.58894212  0.31259207     0.17710
H4541       H  0.17687600  0.66174707  0.25492945     0.17710
F4542       F  0.22061363  0.64450909  0.25897280    -0.20050
C4543       C  0.15099173  0.81043843  0.22725256    -0.21480
C4544       C  0.15799652  0.82790226  0.24558262    -0.09520
C4545       C  0.14897072  0.82528551  0.27010538     0.29330
C4546       C  0.13496119  0.80406697  0.27669432    -0.21480
C4547       C  0.12991547  0.78527149  0.25886762    -0.09540
C4548       C  0.13667202  0.78944384  0.23371330     0.29340
F4549       F  0.13031046  0.77281112  0.21556815    -0.20060
H4550       H  0.15776815  0.81238366  0.20819537     0.17710
H4551       H  0.12983836  0.80140790  0.29616396     0.17710
F4552       F  0.15573140  0.84195078  0.28812563    -0.20050
C4553       C  0.11447831  0.68455362  0.17947837    -0.21480
C4554       C  0.12218668  0.69882476  0.20032838    -0.09520
C4555       C  0.14129547  0.71685548  0.19700613     0.29330
C4556       C  0.15251951  0.72039102  0.17399912    -0.21480
C4557       C  0.14704274  0.70451654  0.15405991    -0.09540
C4558       C  0.12737477  0.68694731  0.15641194     0.29340
F4559       F  0.12209875  0.67096488  0.13733229    -0.20060
H4560       H  0.10036422  0.67007061  0.18166874     0.17710
H4561       H  0.16804174  0.73354713  0.17272093     0.17710
F4562       F  0.15179864  0.72894145  0.21666187    -0.20050
C4563       C  0.04021815  0.67522562  0.35577727    -0.21480
C4564       C  0.06470445  0.67207492  0.34687548    -0.09520
C4565       C  0.08361667  0.66413545  0.36341587     0.29330
C4566       C  0.07797794  0.65964101  0.38868613    -0.21480
C4567       C  0.05335648  0.66263581  0.39756571    -0.09540
C4568       C  0.03444543  0.67022473  0.38076621     0.29340
F4569       F  0.01045001  0.67349931  0.38867337    -0.20060
H4570       H  0.02561959  0.68200976  0.34339436     0.17710
H4571       H  0.09272985  0.65354119  0.40122632     0.17710
F4572       F  0.10770284  0.66198599  0.35540697    -0.20050
C4573       C  0.73760686  0.45094014  0.01758932    -0.21480
C4574       C  0.72039369  0.46873143  0.00891469    -0.09520
C4575       C  0.72833157  0.48697657  0.99153301     0.29330
C4576       C  0.75339410  0.48725583  0.98307344    -0.21480
C4577       C  0.77056101  0.46932294  0.99194764    -0.09540
C4578       C  0.76228705  0.45102351  0.00908509     0.29340
F4579       F  0.77788036  0.43241484  0.01679496    -0.20060
H4580       H  0.73164190  0.43627819  0.03037813     0.17710
H4581       H  0.75941708  0.50146074  0.96984441     0.17710
F4582       F  0.71203447  0.50460973  0.98313885    -0.20050
C4583       C  0.58734327  0.50940821  0.93162325    -0.21480
C4584       C  0.58567642  0.49306375  0.91112640    -0.09520
C4585       C  0.59897492  0.47039359  0.91147848     0.29330
C4586       C  0.61184543  0.46317527  0.93316228    -0.21480
C4587       C  0.61165759  0.47856210  0.95464590    -0.09540
C4588       C  0.60055533  0.50247242  0.95306637     0.29340
F4589       F  0.60146912  0.51875831  0.97254351    -0.20060
H4590       H  0.57732345  0.52710283  0.93146417     0.17710
H4591       H  0.62044918  0.44477339  0.93367829     0.17710
F4592       F  0.59745330  0.45420284  0.89189833    -0.20050
C4593       C  0.62671962  0.55264884  0.05088554    -0.21480
C4594       C  0.61661830  0.53017469  0.04118032    -0.09520
C4595       C  0.59420097  0.53144294  0.02714763     0.29330
C4596       C  0.58208890  0.55393723  0.02336520    -0.21480
C4597       C  0.59060321  0.57586267  0.03469486    -0.09540
C4598       C  0.61344696  0.57552649  0.04801871     0.29340
F4599       F  0.62188466  0.59661089  0.05953920    -0.20060
H4600       H  0.64362234  0.55219030  0.06210979     0.17710
H4601       H  0.56445772  0.55376598  0.01320407     0.17710
F4602       F  0.58239862  0.51054908  0.01861308    -0.20050
C4603       C  0.56706568  0.38942870  0.02609902    -0.21480
C4604       C  0.58828290  0.38654049  0.01077244    -0.09520
C4605       C  0.58776726  0.36911251  0.99109134     0.29330
C4606       C  0.56513337  0.35718314  0.98494236    -0.21480
C4607       C  0.54312195  0.36302028  0.99823181    -0.09540
C4608       C  0.54452159  0.37800533  0.01974999     0.29340
F4609       F  0.52358478  0.38350027  0.03320523    -0.20060
H4610       H  0.56718467  0.40282426  0.04137332     0.17710
H4611       H  0.56424349  0.34558926  0.96828177     0.17710
F4612       F  0.60801584  0.36620614  0.97595231    -0.20050
C4613       C  0.57802285  0.41584757  0.10318761    -0.21480
C4614       C  0.59242891  0.43798680  0.10315232    -0.09520
C4615       C  0.58815912  0.45600432  0.12193054     0.29330
C4616       C  0.56731252  0.45364579  0.13771725    -0.21480
C4617       C  0.55078530  0.43320780  0.13521653    -0.09540
C4618       C  0.55748407  0.41329477  0.11934003     0.29340
F4619       F  0.54190722  0.39333362  0.11643354    -0.20060
H4620       H  0.58125955  0.40151782  0.08914188     0.17710
H4621       H  0.56232023  0.46930897  0.14967931     0.17710
F4622       F  0.60181945  0.47752282  0.12272084    -0.20050
C4623       C  0.76641104  0.24866046  0.01772992    -0.21480
C4624       C  0.74067246  0.25077067  0.02339184    -0.09520
C4625       C  0.72377027  0.25363576  0.00325347     0.29330
C4626       C  0.73257345  0.25550783  0.97849262    -0.21480
C4627       C  0.75841637  0.25462433  0.97295412    -0.09540
C4628       C  0.77521423  0.25051787  0.99296562     0.29340
F4629       F  0.80031364  0.24925158  0.98887029    -0.20060
H4630       H  0.77998844  0.24644868  0.03265172     0.17710
H4631       H  0.71905107  0.25857999  0.96367718     0.17710
F4632       F  0.69876753  0.25599799  0.00745391    -0.20050
C4633       C  0.76603905  0.35366925  0.18356428    -0.21480
C4634       C  0.75258527  0.34998393  0.20604324    -0.09520
C4635       C  0.73174856  0.33368670  0.20590330     0.29330
C4636       C  0.72646451  0.31938982  0.18466929    -0.21480
C4637       C  0.74139422  0.32139852  0.16310508    -0.09540
C4638       C  0.76045191  0.33951045  0.16216933     0.29340
F4639       F  0.77517838  0.34174857  0.14153213    -0.20060
H4640       H  0.78203925  0.36622123  0.18300641     0.17710
H4641       H  0.71146060  0.30564842  0.18551955     0.17710
F4642       F  0.71764488  0.32998780  0.22678402    -0.20050
C4643       C  0.62882670  0.26032954  0.16285044    -0.21480
C4644       C  0.64637946  0.27718034  0.15270526    -0.09520
C4645       C  0.64729730  0.30188168  0.16200212     0.29330
C4646       C  0.63336044  0.30856242  0.18314320    -0.21480
C4647       C  0.61820410  0.29080415  0.19528946    -0.09540
C4648       C  0.61476057  0.26709235  0.18409661     0.29340
F4649       F  0.60073865  0.24930347  0.19579158    -0.20060
H4650       H  0.62811329  0.24111855  0.15621064     0.17710
H4651       H  0.63661746  0.32674026  0.19168640     0.17710
F4652       F  0.66391631  0.31867926  0.15239401    -0.20050
C4653       C  0.81445836  0.24620765  0.13183530    -0.21480
C4654       C  0.79287824  0.23102652  0.13293387    -0.09520
C4655       C  0.79405978  0.20787620  0.14547729     0.29330
C4656       C  0.81541176  0.20163705  0.15909812    -0.21480
C4657       C  0.83556687  0.21856793  0.16095079    -0.09540
C4658       C  0.83562194  0.24017536  0.14583703     0.29340
F4659       F  0.85516599  0.25654999  0.14606153    -0.20060
H4660       H  0.81432644  0.26388883  0.12180816     0.17710
H4661       H  0.81541676  0.18423643  0.16945382     0.17710
F4662       F  0.77404635  0.19212278  0.14621336    -0.20050
C4663       C  0.72620798  0.17007728  0.11643738    -0.21480
C4664       C  0.70177854  0.17992953  0.11777634    -0.09520
C4665       C  0.68350077  0.16629379  0.13117953     0.29330
C4666       C  0.68994570  0.14422387  0.14415275    -0.21480
C4667       C  0.71493013  0.13582043  0.14481838    -0.09540
C4668       C  0.73285947  0.14850422  0.13012603     0.29340
F4669       F  0.75719810  0.14105840  0.13044401    -0.20060
H4670       H  0.74081232  0.18056963  0.10692054     0.17710
H4671       H  0.67589062  0.13511768  0.15570330     0.17710
F4672       F  0.65996807  0.17566301  0.13372358    -0.20050
C4673       C  0.66990428  0.34509082  0.08203006    -0.21480
C4674       C  0.69040437  0.33342686  0.07020424    -0.09520
C4675       C  0.70572631  0.34785117  0.05412525     0.29330
C4676       C  0.70049888  0.37306281  0.04984154    -0.21480
C4677       C  0.68005178  0.38473867  0.06146767    -0.09540
C4678       C  0.66476377  0.37061665  0.07777759     0.29340
F4679       F  0.64429411  0.38113679  0.08866578    -0.20060
H4680       H  0.65806581  0.33454480  0.09476164     0.17710
H4681       H  0.71232226  0.38346016  0.03695217     0.17710
F4682       F  0.72570442  0.33757032  0.04212786    -0.20050
C4683       C  0.41494146  0.96594042  0.57593295    -0.21480
C4684       C  0.41096324  0.98976397  0.58618294    -0.09520
C4685       C  0.39241721  0.00550690  0.57608408     0.29330
C4686       C  0.37923607  0.99794191  0.55462040    -0.21480
C4687       C  0.38481146  0.97482849  0.54331296    -0.09540
C4688       C  0.40201829  0.95849324  0.55462805     0.29340
F4689       F  0.40768434  0.93606241  0.54393701    -0.20060
H4690       H  0.42943918  0.95380847  0.58340820     0.17710
H4691       H  0.36623683  0.01080233  0.54579378     0.17710
F4692       F  0.38881364  0.02890762  0.58547803    -0.20050
C4693       C  0.47947276  0.11041196  0.58312425    -0.21480
C4694       C  0.45988852  0.09544952  0.59245625    -0.09520
C4695       C  0.43614564  0.09678212  0.58108204     0.29330
C4696       C  0.43305448  0.10998506  0.55870196    -0.21480
C4697       C  0.45354986  0.12202946  0.54746845    -0.09540
C4698       C  0.47638333  0.12358299  0.56058777     0.29340
F4699       F  0.49669297  0.13456351  0.54977241    -0.20060
H4700       H  0.49798713  0.10932965  0.59141782     0.17710
H4701       H  0.41547988  0.10824407  0.54864266     0.17710
F4702       F  0.41680583  0.08270831  0.58990906    -0.20050
C4703       C  0.49346249  0.92506623  0.62032872    -0.21480
C4704       C  0.50128962  0.94811055  0.60992450    -0.09520
C4705       C  0.51629294  0.94801553  0.58827488     0.29330
C4706       C  0.52130450  0.92554445  0.57612787    -0.21480
C4707       C  0.51152097  0.90278777  0.58516150    -0.09540
C4708       C  0.49872087  0.90239424  0.60809473     0.29340
F4709       F  0.48941661  0.88058169  0.61741094    -0.20060
H4710       H  0.48205056  0.92473152  0.63713383     0.17710
H4711       H  0.53152995  0.92613851  0.55856861     0.17710
F4712       F  0.52397396  0.96971610  0.57729024    -0.20050
C4713       C  0.58490660  0.00881803  0.61525797    -0.21480
C4714       C  0.59637925  0.02712214  0.60014250    -0.09520
C4715       C  0.58750229  0.05197969  0.60142712     0.29330
C4716       C  0.56560924  0.05764310  0.61482280    -0.21480
C4717       C  0.55252402  0.03879710  0.62775231    -0.09540
C4718       C  0.56313879  0.01460841  0.62904945     0.29340
F4719       F  0.55068961  0.99581628  0.64094213    -0.20060
H4720       H  0.59118047  0.98950245  0.61434399     0.17710
H4721       H  0.55764500  0.07628097  0.61324582     0.17710
F4722       F  0.59871916  0.07033948  0.58775998    -0.20050
C4723       C  0.25190890  0.11756410  0.80903657    -0.21480
C4724       C  0.24750583  0.12734332  0.78496257    -0.09520
C4725       C  0.23732670  0.15154741  0.78254029     0.29330
C4726       C  0.23286925  0.16604044  0.80363835    -0.21480
C4727       C  0.23837956  0.15692587  0.82767651    -0.09540
C4728       C  0.24703297  0.13214492  0.83038720     0.29340
F4729       F  0.25202325  0.12254619  0.85339276    -0.20060
H4730       H  0.25985672  0.09899020  0.81124674     0.17710
H4731       H  0.22581190  0.18492638  0.80100459     0.17710
F4732       F  0.23365865  0.16218934  0.75970460    -0.20050
C4733       C  0.18503817  0.10225683  0.71975725    -0.21480
C4734       C  0.19582144  0.10465513  0.69578208    -0.09520
C4735       C  0.18354904  0.11962831  0.67792782     0.29330
C4736       C  0.16262812  0.13398679  0.68470093    -0.21480
C4737       C  0.15341634  0.13363722  0.70935762    -0.09540
C4738       C  0.16395872  0.11665874  0.72656380     0.29340
F4739       F  0.15598006  0.11636751  0.75072150    -0.20060
H4740       H  0.19460142  0.09148992  0.73406942     0.17710
H4741       H  0.15492326  0.14707996  0.67120969     0.17710
F4742       F  0.19356308  0.12258612  0.65472082    -0.20050
C4743       C  0.27636635  0.17046138  0.60916138    -0.21480
C4744       C  0.29981258  0.18248286  0.61097274    -0.09520
C4745       C  0.31907520  0.17073317  0.62449644     0.29330
C4746       C  0.31408283  0.14911363  0.63846363    -0.21480
C4747       C  0.28980861  0.13886335  0.63924457    -0.09540
C4748       C  0.27132003  0.14870610  0.62323841     0.29340
F4749       F  0.24754068  0.13956528  0.62394288    -0.20060
H4750       H  0.26107349  0.17958573  0.59940269     0.17710
H4751       H  0.32855046  0.14188146  0.65075133     0.17710
F4752       F  0.34177798  0.18207467  0.62689249    -0.20050
C4753       C  0.34059393  0.15090866  0.76923039    -0.21480
C4754       C  0.33723818  0.14646059  0.74361237    -0.09520
C4755       C  0.34869328  0.16225395  0.72598705     0.29330
C4756       C  0.36226107  0.18318416  0.73403689    -0.21480
C4757       C  0.36389104  0.18890515  0.75967000    -0.09540
C4758       C  0.35385190  0.17201413  0.77730904     0.29340
F4759       F  0.35463101  0.17717960  0.80220709    -0.20060
H4760       H  0.33129755  0.13910216  0.78294314     0.17710
H4761       H  0.37052834  0.19549121  0.72020725     0.17710
F4762       F  0.34528063  0.15839601  0.70107355    -0.20050
C4763       C  0.38696173  0.03416197  0.69394305    -0.21480
C4764       C  0.40003374  0.04921436  0.67666166    -0.09520
C4765       C  0.38686172  0.06827947  0.66397183     0.29330
C4766       C  0.36110595  0.07189327  0.66851566    -0.21480
C4767       C  0.34821971  0.05678061  0.68594948    -0.09540
C4768       C  0.36150998  0.03789847  0.69863689     0.29340
F4769       F  0.34980817  0.02273002  0.71544163    -0.20060
H4770       H  0.39647151  0.01917330  0.70382282     0.17710
H4771       H  0.35135778  0.08684602  0.65882620     0.17710
F4772       F  0.39861330  0.08288725  0.64672954    -0.20050
C4773       C  0.26274702  0.98012858  0.77067421    -0.21480
C4774       C  0.26245938  0.95995396  0.75365124    -0.09520
C4775       C  0.26074832  0.96554566  0.72784790     0.29330
C4776       C  0.26067894  0.99060043  0.71948501    -0.21480
C4777       C  0.26230311  0.01073817  0.73651935    -0.09540
C4778       C  0.26274168  0.00508351  0.76236511     0.29340
F4779       F  0.26444464  0.02357594  0.77979089    -0.20060
H4780       H  0.26407664  0.97666106  0.79062461     0.17710
H4781       H  0.26028159  0.99418902  0.69951601     0.17710
F4782       F  0.26006937  0.94688621  0.71054470    -0.20050
C4783       C  0.33188461  0.79746140  0.77073905    -0.21480
C4784       C  0.33524167  0.82004783  0.75763732    -0.09520
C4785       C  0.35394872  0.82156187  0.73920410     0.29330
C4786       C  0.36718401  0.79989132  0.73226442    -0.21480
C4787       C  0.36195726  0.77658787  0.74373161    -0.09540
C4788       C  0.34505590  0.77597590  0.76399933     0.29340
F4789       F  0.33987934  0.75434376  0.77634785    -0.20060
H4790       H  0.31781151  0.79605873  0.78535699     0.17710
H4791       H  0.38034739  0.80106786  0.71683609     0.17710
F4792       F  0.35778786  0.84323282  0.72639188    -0.20050
C4793       C  0.31418698  0.80113963  0.87176982    -0.21480
C4794       C  0.29351799  0.79229401  0.88543938    -0.09520
C4795       C  0.27199577  0.80756603  0.88725789     0.29330
C4796       C  0.26988851  0.82934159  0.87267253    -0.21480
C4797       C  0.28903901  0.83584093  0.85586340    -0.09540
C4798       C  0.31189143  0.82260134  0.85679327     0.29340
F4799       F  0.33088165  0.82863044  0.84090987    -0.20060
H4800       H  0.33081650  0.78961746  0.86985167     0.17710
H4801       H  0.25210401  0.83915332  0.87216639     0.17710
F4802       F  0.25171608  0.79957280  0.90046279    -0.20050
C4803       C  0.24992343  0.84968552  0.68668303    -0.21480
C4804       C  0.24585219  0.84080047  0.71108013    -0.09520
C4805       C  0.23610439  0.81648836  0.71467262     0.29330
C4806       C  0.23151793  0.80104676  0.69420876    -0.21480
C4807       C  0.23684607  0.80937766  0.66988872    -0.09540
C4808       C  0.24526981  0.83414363  0.66611921     0.29340
F4809       F  0.24932479  0.84316519  0.64267211    -0.20060
H4810       H  0.25744910  0.86834504  0.68362076     0.17710
H4811       H  0.22505919  0.78202953  0.69753156     0.17710
F4812       F  0.23317629  0.80673133  0.73800644    -0.20050
C4813       C  0.18566279  0.86543008  0.77446646    -0.21480
C4814       C  0.19537088  0.86826406  0.79881259    -0.09520
C4815       C  0.18199518  0.85779468  0.81896333     0.29330
C4816       C  0.16092410  0.84260665  0.81459766    -0.21480
C4817       C  0.15264906  0.83777847  0.79007751    -0.09540
C4818       C  0.16447329  0.85030283  0.77006218     0.29340
F4819       F  0.15770903  0.84524531  0.74605955    -0.20060
H4820       H  0.19609905  0.87258929  0.75856299     0.17710
H4821       H  0.15227442  0.83294752  0.83026132     0.17710
F4822       F  0.19094977  0.86002244  0.84265051    -0.20050
C4823       C  0.48530096  0.96371782  0.74984995    -0.21480
C4824       C  0.48675546  0.98081839  0.76981722    -0.09520
C4825       C  0.49055235  0.00646826  0.76431750     0.29330
C4826       C  0.49069259  0.01486099  0.73945167    -0.21480
C4827       C  0.48720902  0.99795137  0.71955172    -0.09540
C4828       C  0.48550031  0.97206431  0.72503313     0.29340
F4829       F  0.48234452  0.95479126  0.70658675    -0.20060
H4830       H  0.48255181  0.94387692  0.75339053     0.17710
H4831       H  0.49237263  0.03480995  0.73586443     0.17710
F4832       F  0.49293778  0.02369277  0.78291301    -0.20050
C4833       C  0.41233051  0.96522245  0.92728603    -0.21480
C4834       C  0.40899517  0.97974251  0.90568070    -0.09520
C4835       C  0.38923824  0.99712058  0.90454649     0.29330
C4836       C  0.37491632  0.00190521  0.92609236    -0.21480
C4837       C  0.38037662  0.98924983  0.94852646    -0.09540
C4838       C  0.39811613  0.96981090  0.94852551     0.29340
F4839       F  0.40334380  0.95683899  0.96980967    -0.20060
H4840       H  0.42724991  0.95145944  0.92829958     0.17710
H4841       H  0.36134193  0.01701909  0.92589057     0.17710
F4842       F  0.38561505  0.01122546  0.88369858    -0.20050
C4843       C  0.47046898  0.86565217  0.90173288    -0.21480
C4844       C  0.45370315  0.88534878  0.89701307    -0.09520
C4845       C  0.43126755  0.88658068  0.91097122     0.29330
C4846       C  0.42735872  0.87045677  0.93134390    -0.21480
C4847       C  0.44598785  0.85331834  0.93842322    -0.09540
C4848       C  0.46676708  0.84984820  0.92244116     0.29340
F4849       F  0.48521614  0.83355872  0.92891787    -0.20060
H4850       H  0.48784448  0.86432366  0.89126908     0.17710
H4851       H  0.41145447  0.87380116  0.94355646     0.17710
F4852       F  0.41431066  0.90503825  0.90648635    -0.20050
C4853       C  0.48837849  0.05435433  0.87680434    -0.21480
C4854       C  0.50074602  0.03136068  0.88092861    -0.09520
C4855       C  0.52014620  0.03035376  0.89879903     0.29330
C4856       C  0.52450685  0.05081406  0.91441657    -0.21480
C4857       C  0.51020612  0.07274211  0.91206733    -0.09540
C4858       C  0.49320073  0.07505598  0.89219145     0.29340
F4859       F  0.47959929  0.09636179  0.88916033    -0.20060
H4860       H  0.47367893  0.05580643  0.86288083     0.20590
H4861       H  0.53829107  0.04909305  0.92923950     0.17710
F4862       F  0.53346345  0.00900751  0.90276272    -0.20050
C4863       C  0.56086515  0.91704653  0.87618054    -0.21480
C4864       C  0.55025261  0.93647171  0.86199971    -0.09520
C4865       C  0.56324373  0.95944344  0.86008012     0.29330
C4866       C  0.58484572  0.96376322  0.87458872    -0.21480
C4867       C  0.59356878  0.94523349  0.89114812    -0.09540
C4868       C  0.58238197  0.92130432  0.89054933     0.29340
F4869       F  0.59077085  0.90279968  0.90587691    -0.20060
H4870       H  0.55097774  0.89936491  0.87822710     0.17710
H4871       H  0.59298487  0.98241289  0.87496492     0.17710
F4872       F  0.55311474  0.97880237  0.84702003    -0.20050
C4873       C  0.38668452  0.91091132  0.82682343    -0.21480
C4874       C  0.39792366  0.93116449  0.81411523    -0.09520
C4875       C  0.38330419  0.94541519  0.79738922     0.29330
C4876       C  0.35828269  0.93907133  0.79305163    -0.21480
C4877       C  0.34709267  0.91883343  0.80564844    -0.09540
C4878       C  0.36140313  0.90487950  0.82280418     0.29340
F4879       F  0.35129626  0.88479668  0.83481330    -0.20060
H4880       H  0.39740406  0.89990788  0.84009728     0.17710
H4881       H  0.34760985  0.94992933  0.77961027     0.17710
F4882       F  0.39324526  0.96524525  0.78483100    -0.20050
C4883       C  0.97614728  0.74136724  0.48907614    -0.21480
C4884       C  0.99358370  0.76105668  0.48739103    -0.09520
C4885       C  0.01935491  0.75547477  0.48788485     0.29330
C4886       C  0.02747150  0.73054138  0.48817110    -0.21480
C4887       C  0.01005394  0.71074937  0.48732636    -0.09540
C4888       C  0.98425372  0.71635808  0.48878301     0.29340
F4889       F  0.96684936  0.69772030  0.48871613    -0.20060
H4890       H  0.95621231  0.74528330  0.48861494     0.17710
H4891       H  0.04741454  0.72676819  0.48716577     0.17710
F4892       F  0.03668456  0.77414848  0.48666198    -0.20050
C4893       C  0.01202103  0.89771037  0.39289377    -0.21480
C4894       C  0.98925908  0.89904121  0.40627667    -0.09520
C4895       C  0.97248942  0.91872689  0.40111486     0.29330
C4896       C  0.98000152  0.93838680  0.38561306    -0.21480
C4897       C  0.00407969  0.93853144  0.37500910    -0.09540
C4898       C  0.01948352  0.91743994  0.37739943     0.29340
F4899       F  0.04304010  0.91747680  0.36769901    -0.20060
H4900       H  0.02512444  0.88253537  0.39613715     0.17710
H4901       H  0.96801108  0.95472407  0.38393434     0.17710
F4902       F  0.94987508  0.92024108  0.41273054    -0.20050
C4903       C  0.89525614  0.89423172  0.43505322    -0.21480
C4904       C  0.89522190  0.88326336  0.45901140    -0.09520
C4905       C  0.87857394  0.89239947  0.47718560     0.29330
C4906       C  0.86437020  0.91390924  0.47238769    -0.21480
C4907       C  0.86714993  0.92710605  0.44971798    -0.09540
C4908       C  0.88137923  0.91616433  0.43040312     0.29340
F4909       F  0.88503461  0.92870914  0.40856362    -0.20060
H4910       H  0.90826180  0.88760455  0.42091717     0.17710
H4911       H  0.85385318  0.92220671  0.48767591     0.17710
F4912       F  0.87823357  0.88225624  0.50051891    -0.20050
C4913       C  0.06525432  0.86532081  0.50360698    -0.21480
C4914       C  0.04947195  0.87430552  0.48459112    -0.09520
C4915       C  0.05621946  0.89593649  0.47109603     0.29330
C4916       C  0.07703344  0.90976410  0.47811138    -0.21480
C4917       C  0.09160394  0.90218357  0.49847012    -0.09540
C4918       C  0.08646328  0.87931033  0.51058879     0.29340
F4919       F  0.10054800  0.87174283  0.53035812    -0.20060
H4920       H  0.06024554  0.84861885  0.51406641     0.17710
H4921       H  0.08108503  0.92720075  0.46840633     0.17710
F4922       F  0.04181981  0.90449757  0.45192501    -0.20050
C4923       C  0.98010710  0.86621881  0.58668243    -0.21480
C4924       C  0.96183078  0.88372496  0.59379728    -0.09520
C4925       C  0.93863092  0.88375836  0.58112129     0.29330
C4926       C  0.93510151  0.86887483  0.55974057    -0.21480
C4927       C  0.95478005  0.85409338  0.55050738    -0.09540
C4928       C  0.97671658  0.85162769  0.56505384     0.29340
F4929       F  0.99617022  0.83760508  0.55649060    -0.20060
H4930       H  0.99812205  0.86592773  0.59606633     0.17710
H4931       H  0.91824952  0.87141565  0.54868653     0.17710
F4932       F  0.92031375  0.90007786  0.58794242    -0.20050
C4933       C  0.99262023  0.76212879  0.25550903    -0.21480
C4934       C  0.97300044  0.74481110  0.25841488    -0.09520
C4935       C  0.97862457  0.71909390  0.26000926     0.29330
C4936       C  0.00353823  0.71106647  0.26081098    -0.21480
C4937       C  0.02329790  0.72856586  0.26052744    -0.09540
C4938       C  0.01762093  0.75416863  0.25672374     0.29340
F4939       F  0.03609231  0.77171754  0.25568911    -0.20060
H4940       H  0.98863656  0.78203483  0.25432580     0.17710
H4941       H  0.00724897  0.69125326  0.26345050     0.17710
F4942       F  0.95997409  0.70183947  0.26224363    -0.20050
C4943       C  0.84547360  0.68013523  0.27450745    -0.21480
C4944       C  0.86346679  0.68908392  0.25765539    -0.09520
C4945       C  0.87083150  0.67434710  0.23712787     0.29330
C4946       C  0.85814816  0.65179626  0.23221189    -0.21480
C4947       C  0.83851410  0.64414065  0.24802339    -0.09540
C4948       C  0.83314262  0.65776124  0.26984425     0.29340
F4949       F  0.81439005  0.65046909  0.28550934    -0.20060
H4950       H  0.84003363  0.69120020  0.29068115     0.17710
H4951       H  0.86217919  0.64151464  0.21516283     0.17710
F4952       F  0.88851990  0.68276812  0.22085600    -0.20050
C4953       C  0.86961456  0.80108004  0.17934656    -0.21480
C4954       C  0.88347371  0.78224352  0.19148732    -0.09520
C4955       C  0.88631922  0.75889073  0.17937199     0.29330
C4956       C  0.87262885  0.75331788  0.15769904    -0.21480
C4957       C  0.85652894  0.77117308  0.14714501    -0.09540
C4958       C  0.85635411  0.79566127  0.15716251     0.29340
F4959       F  0.84076424  0.81329857  0.14749147    -0.20060
H4960       H  0.86654169  0.81894016  0.18856014     0.17710
H4961       H  0.87292256  0.73432351  0.15042261     0.17710
F4962       F  0.89942232  0.74018575  0.19063644    -0.20050
C4963       C  0.84112252  0.84184747  0.30979038    -0.21480
C4964       C  0.85143588  0.84323759  0.28558588    -0.09520
C4965       C  0.84263862  0.86159620  0.26900499     0.29330
C4966       C  0.82192381  0.87631622  0.27553304    -0.21480
C4967       C  0.80900652  0.87208872  0.29817243    -0.09540
C4968       C  0.81991914  0.85614336  0.31608857     0.29340
F4969       F  0.80767253  0.85112283  0.33783778    -0.20060
H4970       H  0.84763017  0.82763264  0.32276245     0.17710
H4971       H  0.81363898  0.88818950  0.26128081     0.17710
F4972       F  0.85233272  0.86339553  0.24554841    -0.20050
C4973       C  0.83150666  0.72574442  0.34573538    -0.21480
C4974       C  0.83079324  0.74856339  0.33261051    -0.09520
C4975       C  0.81048855  0.76500152  0.33646174     0.29330
C4976       C  0.79012982  0.75740725  0.35103726    -0.21480
C4977       C  0.78977417  0.73346918  0.36203989    -0.09540
C4978       C  0.81122840  0.71816909  0.36031159     0.29340
F4979       F  0.81189748  0.69495531  0.37081246    -0.20060
H4980       H  0.84708117  0.71289997  0.34346215     0.17710
H4981       H  0.77402754  0.76972005  0.35252329     0.17710
F4982       F  0.80951799  0.78773445  0.32501450    -0.20050
C4983       C  0.92181540  0.77762839  0.36893768    -0.21480
C4984       C  0.93010692  0.79106618  0.34760760    -0.09520
C4985       C  0.94624457  0.81157503  0.35095369     0.29330
C4986       C  0.95419073  0.81807152  0.37501722    -0.21480
C4987       C  0.94619740  0.80434417  0.39622112    -0.09540
C4988       C  0.92969954  0.78417336  0.39296373     0.29340
F4989       F  0.92173226  0.77033689  0.41280215    -0.20060
H4990       H  0.90926231  0.76172014  0.36712184     0.17710
H4991       H  0.96669464  0.83400595  0.37703757     0.17710
F4992       F  0.95440473  0.82531296  0.33113530    -0.20050
loop_ 
_geom_bond_atom_site_label_1 
_geom_bond_atom_site_label_2 
_geom_bond_distance 
_geom_bond_site_symmetry_2 
_ccdc_geom_bond_type 
O1          Cr19   1.970       .  S
O1            C9   1.253       .  A
O2          Cr19   1.986       .  S
O2            C3   1.262       .  A
C3            O4   1.261       .  A
C3         C4934   1.473       .  S
O4          Cr20   1.987       .  S
O5          Cr20   2.070       .  S
O5            C6   1.283       .  A
C6            O7   1.255       .  A
C6         C4954   1.481       .  S
O7          Cr21   1.935       .  S
O8          Cr21   2.002       .  S
O8            C9   1.265       .  A
C9         C4944   1.454       .  S
O10         Cr19   2.008       .  S
O10          C18   1.269       .  A
O11         Cr19   1.930       .  S
O11          C12   1.251       .  A
C12          O13   1.276       .  A
C12        C4984   1.480       .  S
O13         Cr20   2.039       .  S
O14         Cr20   1.992       .  S
O14          C15   1.254       .  A
C15          O16   1.260       .  A
C15        C4964   1.474       .  S
O16         Cr21   2.005       .  S
O17         Cr21   1.967       .  S
O17          C18   1.259       .  A
C18        C4974   1.472       .  S
Cr19         O22   1.761       .  S
Cr20         O22   1.770       .  S
Cr21         O22   1.760       .  S
O23         Cr41   1.983   1_455  S
O23          C31   1.256       .  A
O24         Cr41   1.984       .  S
O24          C25   1.262       .  A
C25          O26   1.262       .  A
C25        C4884   1.475       .  S
O26         Cr42   1.989       .  S
O27         Cr42   2.061       .  S
O27          C28   1.282       .  A
C28          O29   1.259       .  A
C28        C4927   1.476       .  S
O29         Cr43   1.947       .  S
O30         Cr43   1.983   1_455  S
O30          C31   1.260       .  A
C31        C4914   1.461       .  S
O32         Cr41   2.002   1_455  S
O32          C40   1.268   1_455  A
O33         Cr41   1.936       .  S
O33          C34   1.252       .  A
C34          O35   1.272       .  A
C34        C4987   1.475       .  S
O35         Cr42   2.023       .  S
O36         Cr42   2.002       .  S
O36          C37   1.254       .  A
C37          O38   1.256       .  A
C37        C4904   1.475       .  S
O38         Cr43   1.997       .  S
O39         Cr43   1.977       .  S
O39          C40   1.265       .  A
C40        C4894   1.475       .  S
Cr41         O44   1.768       .  S
Cr42         O44   1.774       .  S
Cr43         O44   1.760       .  S
O45         Cr63   2.009   1_545  S
O45          C53   1.269       .  A
O46         Cr63   1.970       .  S
O46          C47   1.260       .  A
C47          O48   1.272       .  A
C47        C4824   1.487       .  S
O48         Cr64   2.023       .  S
O49         Cr64   2.012       .  S
O49          C50   1.265       .  A
C50          O51   1.260       .  A
C50        C4864   1.475       .  S
O51         Cr65   1.992       .  S
O52         Cr65   1.969       .  S
O52          C53   1.261   1_565  A
C53        C4854   1.477       .  S
O54         Cr63   1.988       .  S
O54          C62   1.258       .  A
O55         Cr63   1.996       .  S
O55          C56   1.264       .  A
C56          O57   1.264       .  A
C56        C4874   1.480       .  S
O57         Cr64   1.990       .  S
O58         Cr64   2.041       .  S
O58          C59   1.273       .  A
C59          O60   1.257       .  A
C59        C4844   1.482       .  S
O60         Cr65   1.966       .  S
O61         Cr65   1.980       .  S
O61          C62   1.260       .  A
C62        C4834   1.463       .  S
Cr63         O66   1.767       .  S
Cr64         O66   1.764       .  S
Cr65         O66   1.752       .  S
O67         Cr85   2.013       .  S
O67          C75   1.270       .  A
O68         Cr85   1.988       .  S
O68          C69   1.263       .  A
C69          O70   1.270       .  A
C69        C4774   1.499       .  S
O70         Cr86   2.021       .  S
O71         Cr86   2.021       .  S
O71          C72   1.266       .  A
C72          O73   1.259       .  A
C72        C4814   1.479       .  S
O73         Cr87   1.991       .  S
O74         Cr87   1.956       .  S
O74          C75   1.258       .  A
C75        C4804   1.465       .  S
O76         Cr85   2.002       .  S
O76          C84   1.261       .  A
O77         Cr85   1.996       .  S
O77          C78   1.266       .  A
C78          O79   1.266       .  A
C78        C4877   1.473       .  S
O79         Cr86   1.993       .  S
O80         Cr86   2.046       .  S
O80          C81   1.273       .  A
C81          O82   1.256       .  A
C81        C4797   1.477       .  S
O82         Cr87   1.960       .  S
O83         Cr87   1.975       .  S
O83          C84   1.257       .  A
C84        C4784   1.471       .  S
Cr85         O88   1.770       .  S
Cr86         O88   1.766       .  S
Cr87         O88   1.757       .  S
O89        Cr107   2.015       .  S
O89          C97   1.268       .  A
O90        Cr107   1.975       .  S
O90          C91   1.260       .  A
C91          O92   1.272       .  A
C91        C4777   1.499       .  S
O92        Cr108   2.035       .  S
O93        Cr108   2.021       .  S
O93          C94   1.268       .  A
C94          O95   1.261       .  A
C94        C4734   1.481       .  S
O95        Cr109   1.994       .  S
O96        Cr109   1.961       .  S
O96          C97   1.259       .  A
C97        C4724   1.471       .  S
O98        Cr107   1.981       .  S
O98         C106   1.257       .  A
O99        Cr107   1.999       .  S
O99         C100   1.267       .  A
C100        O101   1.267       .  A
C100       C4767   1.482       .  S
O101       Cr108   2.000       .  S
O102       Cr108   2.046       .  S
O102        C103   1.272       .  A
C103        O104   1.257       .  A
C103       C4747   1.478       .  S
O104       Cr109   1.961       .  S
O105       Cr109   1.989       .  S
O105        C106   1.260       .  A
C106       C4754   1.457       .  S
Cr107       O110   1.766       .  S
Cr108       O110   1.768       .  S
Cr109       O110   1.756       .  S
O111       Cr129   2.004       .  S
O111        C119   1.266       .  A
O112       Cr129   1.964       .  S
O112        C113   1.257   1_565  A
C113        O114   1.271       .  A
C113       C4827   1.487   1_545  S
O114       Cr130   2.027       .  S
O115       Cr130   2.018       .  S
O115        C116   1.267       .  A
C116        O117   1.261       .  A
C116       C4717   1.481       .  S
O117       Cr131   1.997       .  S
O118       Cr131   1.968   1_565  S
O118        C119   1.261       .  A
C119       C4704   1.472       .  S
O120       Cr129   1.985   1_545  S
O120        C128   1.257   1_545  A
O121       Cr129   1.991   1_545  S
O121        C122   1.264       .  A
C122        O123   1.268       .  A
C122       C4764   1.485       .  S
O123       Cr130   2.008       .  S
O124       Cr130   2.037       .  S
O124        C125   1.271       .  A
C125        O126   1.257       .  A
C125       C4694   1.473       .  S
O126       Cr131   1.961       .  S
O127       Cr131   1.989       .  S
O127        C128   1.261   1_545  A
C128       C4684   1.458       .  S
Cr129       O132   1.761   1_565  S
Cr130       O132   1.767       .  S
Cr131       O132   1.754       .  S
O133       Cr151   1.994       .  S
O133        C141   1.267       .  A
O134       Cr151   1.982       .  S
O134        C135   1.263       .  A
C135        O136   1.273       .  A
C135       C4624   1.501       .  S
O136       Cr152   2.034       .  S
O137       Cr152   2.032       .  S
O137        C138   1.270       .  A
C138        O139   1.258       .  A
C138       C4664   1.487       .  S
O139       Cr153   1.991       .  S
O140       Cr153   1.971       .  S
O140        C141   1.262       .  A
C141       C4654   1.472       .  S
O142       Cr151   1.995       .  S
O142        C150   1.260       .  A
O143       Cr151   1.980       .  S
O143        C144   1.261       .  A
C144        O145   1.268       .  A
C144       C4674   1.483       .  S
O145       Cr152   2.009       .  S
O146       Cr152   2.044       .  S
O146        C147   1.273       .  A
C147        O148   1.257       .  A
C147       C4644   1.477       .  S
O148       Cr153   1.958       .  S
O149       Cr153   1.982       .  S
O149        C150   1.258       .  A
C150       C4637   1.468       .  S
Cr151       O154   1.766       .  S
Cr152       O154   1.766       .  S
Cr153       O154   1.761       .  S
O155       Cr173   2.012   1_556  S
O155        C163   1.269       .  A
O156       Cr173   1.983       .  S
O156        C157   1.260       .  A
C157        O158   1.269       .  A
C157       C4574   1.473       .  S
O158       Cr174   2.016       .  S
O159       Cr174   2.043       .  S
O159        C160   1.270       .  A
C160        O161   1.252       .  A
C160       C4594   1.486       .  S
O161       Cr175   1.970       .  S
O162       Cr175   1.983   1_556  S
O162        C163   1.264       .  A
C163       C4587   1.483       .  S
O164       Cr173   2.003       .  S
O164        C172   1.259       .  A
O165       Cr173   1.989       .  S
O165        C166   1.264       .  A
C166        O167   1.265       .  A
C166       C4677   1.475       .  S
O167       Cr174   1.999       .  S
O168       Cr174   2.031       .  S
O168        C169   1.273       .  A
C169        O170   1.263       .  A
C169       C4614   1.479       .  S
O170       Cr175   1.976       .  S
O171       Cr175   1.966       .  S
O171        C172   1.254       .  A
C172       C4604   1.462       .  S
Cr173       O176   1.766       .  S
Cr174       O176   1.769       .  S
Cr175       O176   1.747       .  S
O177       Cr195   2.012       .  S
O177        C185   1.267       .  A
O178       Cr195   1.973       .  S
O178        C179   1.261       .  A
C179        O180   1.271       .  A
C179       C4937   1.484       .  S
O180       Cr196   2.018       .  S
O181       Cr196   2.028       .  S
O181        C182   1.268       .  A
C182        O183   1.256       .  A
C182       C4554   1.481       .  S
O183       Cr197   1.977       .  S
O184       Cr197   1.978       .  S
O184        C185   1.261       .  A
C185       C4547   1.478       .  S
O186       Cr195   1.999       .  S
O186        C194   1.261       .  A
O187       Cr195   1.990       .  S
O187        C188   1.261       .  A
C188        O189   1.264       .  A
C188       C4564   1.466       .  S
O189       Cr196   1.996       .  S
O190       Cr196   2.032       .  S
O190        C191   1.269       .  A
C191        O192   1.259       .  A
C191       C4537   1.466       .  S
O192       Cr197   1.968       .  S
O193       Cr197   1.969       .  S
O193        C194   1.255       .  A
C194       C4524   1.457       .  S
Cr195       O198   1.766       .  S
Cr196       O198   1.772       .  S
Cr197       O198   1.745       .  S
O199       Cr217   1.999   1_655  S
O199        C207   1.255       .  A
O200       Cr217   1.987       .  S
O200        C201   1.264       .  A
C201        O202   1.265       .  A
C201       C4887   1.481       .  S
O202       Cr218   1.987       .  S
O203       Cr218   2.076       .  S
O203        C204   1.289       .  A
C204        O205   1.263       .  A
C204       C4514   1.473       .  S
O205       Cr219   1.944       .  S
O206       Cr219   1.964       .  S
O206        C207   1.248   1_455  A
C207       C4504   1.466       .  S
O208       Cr217   2.024       .  S
O208        C216   1.279       .  A
O209       Cr217   1.954       .  S
O209        C210   1.256       .  A
C210        O211   1.269       .  A
C210       C4567   1.476       .  S
O211       Cr218   2.011       .  S
O212       Cr218   2.035       .  S
O212        C213   1.251       .  A
C213        O214   1.239       .  A
C213       C4494   1.480       .  S
O214       Cr219   1.970       .  S
O215       Cr219   1.981       .  S
O215        C216   1.271       .  A
C216       C4487   1.484       .  S
Cr217       O220   1.765       .  S
Cr218       O220   1.781       .  S
Cr219       O220   1.758       .  S
O221       Cr239   2.015   1_554  S
O221        C229   1.271       .  A
O222       Cr239   1.959   1_554  S
O222        C223   1.259   1_554  A
C223        O224   1.273       .  A
C223       C4577   1.478       .  S
O224       Cr240   2.037       .  S
O225       Cr240   2.027       .  S
O225        C226   1.269       .  A
C226        O227   1.256       .  A
C226       C4464   1.480       .  S
O227       Cr241   1.986       .  S
O228       Cr241   1.966   1_554  S
O228        C229   1.263       .  A
C229       C4454   1.477       .  S
O230       Cr239   1.999       .  S
O230        C238   1.257       .  A
O231       Cr239   1.987       .  S
O231        C232   1.263       .  A
C232        O233   1.266       .  A
C232       C4474   1.479       .  S
O233       Cr240   1.997       .  S
O234       Cr240   2.062       .  S
O234        C235   1.275       .  A
C235        O236   1.256       .  A
C235       C4444   1.484       .  S
O236       Cr241   1.948       .  S
O237       Cr241   1.975       .  S
O237        C238   1.255       .  A
C238       C4434   1.466       .  S
Cr239       O242   1.764       .  S
Cr240       O242   1.774       .  S
Cr241       O242   1.744       .  S
O243       Cr261   2.005       .  S
O243        C251   1.269       .  A
O244       Cr261   1.986       .  S
O244        C245   1.264       .  A
C245        O246   1.271       .  A
C245       C4627   1.502       .  S
O246       Cr262   2.027       .  S
O247       Cr262   2.021       .  S
O247        C248   1.265       .  A
C248        O249   1.257       .  A
C248       C4424   1.480       .  S
O249       Cr263   1.987       .  S
O250       Cr263   1.966       .  S
O250        C251   1.262       .  A
C251       C4414   1.474       .  S
O252       Cr261   1.999       .  S
O252        C260   1.259       .  A
O253       Cr261   1.988       .  S
O253        C254   1.262       .  A
C254        O255   1.263       .  A
C254       C4477   1.464       .  S
O255       Cr262   1.992       .  S
O256       Cr262   2.047       .  S
O256        C257   1.274       .  A
C257        O258   1.257       .  A
C257       C4404   1.477       .  S
O258       Cr263   1.956       .  S
O259       Cr263   1.980       .  S
O259        C260   1.257       .  A
C260       C4397   1.469       .  S
Cr261       O264   1.769       .  S
Cr262       O264   1.769       .  S
Cr263       O264   1.761       .  S
O265       Cr283   1.986       .  S
O265        C273   1.260       .  A
O266       Cr283   1.948       .  S
O266        C267   1.256       .  A
C267        O268   1.279       .  A
C267       C4364   1.477       .  S
O268       Cr284   2.056       .  S
O269       Cr284   1.992       .  S
O269        C270   1.264       .  A
C270        O271   1.264       .  A
C270       C4334   1.479       .  S
O271       Cr285   1.994       .  S
O272       Cr285   1.981       .  S
O272        C273   1.258       .  A
C273       C4354   1.456       .  S
O274       Cr283   1.976       .  S
O274        C282   1.262       .  A
O275       Cr283   1.999       .  S
O275        C276   1.258       .  A
C276        O277   1.256       .  A
C276       C4374   1.477       .  S
O277       Cr284   2.002       .  S
O278       Cr284   2.020       .  S
O278        C279   1.269       .  A
C279        O280   1.254       .  A
C279       C4344   1.462       .  S
O280       Cr285   1.953       .  S
O281       Cr285   2.003       .  S
O281        C282   1.267       .  A
C282       C4384   1.477       .  S
Cr283       O286   1.762       .  S
Cr284       O286   1.775       .  S
Cr285       O286   1.767       .  S
O287       Cr305   1.977       .  S
O287        C295   1.262   1_556  A
O288       Cr305   1.997       .  S
O288        C289   1.262   1_565  A
C289        O290   1.266       .  A
C289       C4324   1.478       .  S
O290       Cr306   2.011   1_545  S
O291       Cr306   2.025       .  S
O291        C292   1.271       .  A
C292        O293   1.261       .  A
C292       C4294   1.492       .  S
O293       Cr307   1.976       .  S
O294       Cr307   1.995   1_554  S
O294        C295   1.264       .  A
C295       C4314   1.479       .  S
O296       Cr305   1.991       .  S
O296        C304   1.262       .  A
O297       Cr305   1.967       .  S
O297        C298   1.257       .  A
C298        O299   1.271       .  A
C298       C4867   1.481       .  S
O299       Cr306   2.042       .  S
O300       Cr306   2.004       .  S
O300        C301   1.268       .  A
C301        O302   1.261       .  A
C301       C4347   1.482       .  S
O302       Cr307   1.983       .  S
O303       Cr307   1.988       .  S
O303        C304   1.260       .  A
C304       C4304   1.465       .  S
Cr305       O308   1.758       .  S
Cr306       O308   1.770       .  S
Cr307       O308   1.766       .  S
O309       Cr327   1.986       .  S
O309        C317   1.264       .  A
O310       Cr327   1.931       .  S
O310        C311   1.253       .  A
C311        O312   1.279       .  A
C311       C4967   1.472       .  S
O312       Cr328   2.060       .  S
O313       Cr328   2.016       .  S
O313        C314   1.267       .  A
C314        O315   1.263       .  A
C314       C4247   1.487       .  S
O315       Cr329   1.993       .  S
O316       Cr329   1.976       .  S
O316        C317   1.259       .  A
C317       C4254   1.456       .  S
O318       Cr327   1.971       .  S
O318        C326   1.259       .  A
O319       Cr327   2.001       .  S
O319        C320   1.257       .  A
C320        O321   1.260       .  A
C320       C4274   1.484       .  S
O321       Cr328   2.011       .  S
O322       Cr328   2.030       .  S
O322        C323   1.274       .  A
C323        O324   1.255       .  A
C323       C4284   1.475       .  S
O324       Cr329   1.943       .  S
O325       Cr329   2.000       .  S
O325        C326   1.265       .  A
C326       C4264   1.472       .  S
Cr327       O330   1.760       .  S
Cr328       O330   1.767       .  S
Cr329       O330   1.762       .  S
O331       Cr349   1.972       .  S
O331        C339   1.263   1_565  A
O332       Cr349   1.998       .  S
O332        C333   1.260       .  A
C333        O334   1.269       .  A
C333       C4224   1.480       .  S
O334       Cr350   2.019       .  S
O335       Cr350   2.019       .  S
O335        C336   1.268       .  A
C336        O337   1.261       .  A
C336       C4197   1.492       .  S
O337       Cr351   1.989       .  S
O338       Cr351   1.998   1_545  S
O338        C339   1.267       .  A
C339       C4214   1.477       .  S
O340       Cr349   1.981       .  S
O340        C348   1.257       .  A
O341       Cr349   1.966       .  S
O341        C342   1.256       .  A
C342        O343   1.269       .  A
C342       C4234   1.472       .  S
O343       Cr350   2.043       .  S
O344       Cr350   1.985       .  S
O344        C345   1.265       .  A
C345        O346   1.265       .  A
C345       C4287   1.467       .  S
O346       Cr351   1.986       .  S
O347       Cr351   2.003       .  S
O347        C348   1.260       .  A
C348       C4204   1.475       .  S
Cr349       O352   1.754       .  S
Cr350       O352   1.778       .  S
Cr351       O352   1.770       .  S
O353       Cr371   1.985       .  S
O353        C361   1.261       .  A
O354       Cr371   1.937       .  S
O354        C355   1.254       .  A
C355        O356   1.283       .  A
C355       C4184   1.478       .  S
O356       Cr372   2.070       .  S
O357       Cr372   2.014       .  S
O357        C358   1.269       .  A
C358        O359   1.266       .  A
C358       C4144   1.502       .  S
O359       Cr373   2.000       .  S
O360       Cr373   1.986       .  S
O360        C361   1.260       .  A
C361       C4387   1.462       .  S
O362       Cr371   1.966       .  S
O362        C370   1.259       .  A
O363       Cr371   1.998       .  S
O363        C364   1.256       .  A
C364        O365   1.259       .  A
C364       C4174   1.486       .  S
O365       Cr372   2.016       .  S
O366       Cr372   2.027       .  S
O366        C367   1.272       .  A
C367        O368   1.255       .  A
C367       C4154   1.473       .  S
O368       Cr373   1.948       .  S
O369       Cr373   2.007       .  S
O369        C370   1.268       .  A
C370       C4164   1.473       .  S
Cr371       O374   1.763       .  S
Cr372       O374   1.772       .  S
Cr373       O374   1.767       .  S
O375       Cr393   1.977   1_455  S
O375        C383   1.263   1_465  A
O376       Cr393   1.994   1_455  S
O376        C377   1.261       .  A
C377        O378   1.266       .  A
C377       C4124   1.479       .  S
O378       Cr394   2.014   1_455  S
O379       Cr394   2.026       .  S
O379        C380   1.272       .  A
C380        O381   1.260       .  A
C380       C4104   1.485       .  S
O381       Cr395   1.971       .  S
O382       Cr395   2.000   1_545  S
O382        C383   1.266       .  A
C383       C4117   1.479   1_655  S
O384       Cr393   1.984       .  S
O384        C392   1.260       .  A
O385       Cr393   1.967       .  S
O385        C386   1.257       .  A
C386        O387   1.273       .  A
C386       C4924   1.482       .  S
O387       Cr394   2.042       .  S
O388       Cr394   1.993       .  S
O388        C389   1.264       .  A
C389        O390   1.261       .  A
C389       C4157   1.474       .  S
O390       Cr395   1.984       .  S
O391       Cr395   1.986       .  S
O391        C392   1.257       .  A
C392       C4134   1.463       .  S
Cr393       O396   1.756       .  S
Cr394       O396   1.769       .  S
Cr395       O396   1.768       .  S
O397       Cr415   1.975       .  S
O397        C405   1.263       .  A
O398       Cr415   1.988       .  S
O398        C399   1.260       .  A
C399        O400   1.264       .  A
C399       C4407   1.472       .  S
O400       Cr416   2.009       .  S
O401       Cr416   2.028       .  S
O401        C402   1.273       .  A
C402        O403   1.263       .  A
C402       C4054   1.494       .  S
O403       Cr417   1.978       .  S
O404       Cr417   2.004       .  S
O404        C405   1.268       .  A
C405       C4084   1.478       .  S
O406       Cr415   1.981       .  S
O406        C414   1.259       .  A
O407       Cr415   1.955       .  S
O407        C408   1.255       .  A
C408        O409   1.272       .  A
C408       C4077   1.476       .  S
O409       Cr416   2.042       .  S
O410       Cr416   1.997       .  S
O410        C411   1.263       .  A
C411        O412   1.262       .  A
C411       C4094   1.472       .  S
O412       Cr417   1.985       .  S
O413       Cr417   1.995       .  S
O413        C414   1.261       .  A
C414       C4064   1.470       .  S
Cr415       O418   1.757       .  S
Cr416       O418   1.767       .  S
Cr417       O418   1.765       .  S
O419       Cr437   1.992   1_455  S
O419        C427   1.266       .  A
O420       Cr437   1.988       .  S
O420        C421   1.260       .  A
C421        O422   1.265       .  A
C421       C4034   1.474       .  S
O422       Cr438   2.010       .  S
O423       Cr438   2.023       .  S
O423        C424   1.271       .  A
C424        O425   1.265   1_655  A
C424       C4004   1.496       .  S
O425       Cr439   1.986   1_455  S
O426       Cr439   1.988   1_455  S
O426        C427   1.264       .  A
C427       C4024   1.478       .  S
O428       Cr437   1.977       .  S
O428        C436   1.258       .  A
O429       Cr437   1.976       .  S
O429        C430   1.259       .  A
C430        O431   1.270       .  A
C430       C4044   1.484       .  S
O431       Cr438   2.031       .  S
O432       Cr438   2.001       .  S
O432        C433   1.263       .  A
C433        O434   1.258       .  A
C433       C4097   1.475       .  S
O434       Cr439   1.977       .  S
O435       Cr439   2.005       .  S
O435        C436   1.264       .  A
C436       C4014   1.472       .  S
Cr437       O440   1.760       .  S
Cr438       O440   1.770       .  S
Cr439       O440   1.766       .  S
O441       Cr459   1.984       .  S
O441        C449   1.262       .  A
O442       Cr459   1.936       .  S
O442        C443   1.255       .  A
C443        O444   1.281       .  A
C443       C3997   1.478       .  S
O444       Cr460   2.064       .  S
O445       Cr460   2.009       .  S
O445        C446   1.266       .  A
C446        O447   1.262       .  A
C446       C3964   1.489       .  S
O447       Cr461   1.991       .  S
O448       Cr461   1.977       .  S
O448        C449   1.258       .  A
C449       C4167   1.454       .  S
O450       Cr459   1.980       .  S
O450        C458   1.263       .  A
O451       Cr459   1.994       .  S
O451        C452   1.255       .  A
C452        O453   1.259       .  A
C452       C3987   1.482       .  S
O453       Cr460   2.013       .  S
O454       Cr460   2.029       .  S
O454        C455   1.274       .  A
C455        O456   1.255       .  A
C455       C3974   1.475       .  S
O456       Cr461   1.946       .  S
O457       Cr461   2.001       .  S
O457        C458   1.265       .  A
C458       C4357   1.476       .  S
Cr459       O462   1.765       .  S
Cr460       O462   1.773       .  S
Cr461       O462   1.767       .  S
O463       Cr481   1.987   1_455  S
O463        C471   1.262       .  A
O464       Cr481   1.942   1_554  S
O464        C465   1.253       .  A
C465        O466   1.281       .  A
C465       C3954   1.476       .  S
O466       Cr482   2.067   1_554  S
O467       Cr482   2.002       .  S
O467        C468   1.267       .  A
C468        O469   1.264       .  A
C468       C3924   1.484       .  S
O469       Cr483   1.995       .  S
O470       Cr483   1.980   1_455  S
O470        C471   1.257       .  A
C471       C3944   1.464   1_556  S
O472       Cr481   1.964       .  S
O472        C480   1.261       .  A
O473       Cr481   2.011       .  S
O473        C474   1.260       .  A
C474        O475   1.258       .  A
C474       C4467   1.485       .  S
O475       Cr482   2.005       .  S
O476       Cr482   2.026       .  S
O476        C477   1.273       .  A
C477        O478   1.254       .  A
C477       C3977   1.481       .  S
O478       Cr483   1.945       .  S
O479       Cr483   2.011   1_455  S
O479        C480   1.268   1_455  A
C480       C3934   1.475       .  S
Cr481       O484   1.758       .  S
Cr482       O484   1.772       .  S
Cr483       O484   1.769       .  S
O485       Cr503   1.963       .  S
O485        C493   1.261       .  A
O486       Cr503   1.989       .  S
O486        C487   1.257       .  A
C487        O488   1.268       .  A
C487       C3907   1.482       .  S
O488       Cr504   2.027       .  S
O489       Cr504   2.032       .  S
O489        C490   1.273       .  A
C490        O491   1.264       .  A
C490       C4147   1.501       .  S
O491       Cr505   1.992       .  S
O492       Cr505   2.010       .  S
O492        C493   1.269       .  A
C493       C3897   1.471       .  S
O494       Cr503   1.976       .  S
O494        C502   1.256       .  A
O495       Cr503   1.958       .  S
O495        C496   1.256       .  A
C496        O497   1.276       .  A
C496       C4427   1.483       .  S
O497       Cr504   2.057       .  S
O498       Cr504   1.996       .  S
O498        C499   1.266       .  A
C499        O500   1.263       .  A
C499       C3917   1.470       .  S
O500       Cr505   1.986       .  S
O501       Cr505   1.996       .  S
O501        C502   1.259       .  A
C502       C4087   1.468       .  S
Cr503       O506   1.761       .  S
Cr504       O506   1.769       .  S
Cr505       O506   1.772       .  S
O507       Cr525   1.969   1_465  S
O507        C515   1.260   1_455  A
O508       Cr525   1.994   1_455  S
O508        C509   1.260       .  A
C509        O510   1.262       .  A
C509       C3864   1.474       .  S
O510       Cr526   2.007   1_455  S
O511       Cr526   2.024       .  S
O511        C512   1.271       .  A
C512        O513   1.258   1_545  A
C512       C4107   1.488   1_545  S
O513       Cr527   1.968   1_565  S
O514       Cr527   2.002   1_565  S
O514        C515   1.268       .  A
C515       C3854   1.476   1_655  S
O516       Cr525   1.989       .  S
O516        C524   1.261       .  A
O517       Cr525   1.948       .  S
O517        C518   1.254       .  A
C518        O519   1.274       .  A
C518       C3887   1.474       .  S
O519       Cr526   2.049       .  S
O520       Cr526   1.989       .  S
O520        C521   1.264       .  A
C521        O522   1.264       .  A
C521       C3914   1.469       .  S
O522       Cr527   1.991       .  S
O523       Cr527   1.977       .  S
O523        C524   1.256       .  A
C524       C3874   1.463       .  S
Cr525       O528   1.760       .  S
Cr526       O528   1.772       .  S
Cr527       O528   1.764       .  S
O529       Cr547   1.990       .  S
O529        C537   1.262       .  A
O530       Cr547   1.942       .  S
O530        C531   1.256       .  A
C531        O532   1.281       .  A
C531       C3834   1.474       .  S
O532       Cr548   2.062       .  S
O533       Cr548   1.991       .  S
O533        C534   1.265       .  A
C534        O535   1.265       .  A
C534       C4337   1.478       .  S
O535       Cr549   1.994       .  S
O536       Cr549   1.985       .  S
O536        C537   1.258       .  A
C537       C3824   1.469       .  S
O538       Cr547   1.963       .  S
O538        C546   1.259       .  A
O539       Cr547   2.002       .  S
O539        C540   1.258       .  A
C540        O541   1.257       .  A
C540       C4957   1.482       .  S
O541       Cr548   2.010       .  S
O542       Cr548   2.024       .  S
O542        C543   1.270       .  A
C543        O544   1.253       .  A
C543       C3844   1.468       .  S
O544       Cr549   1.945       .  S
O545       Cr549   2.006       .  S
O545        C546   1.269       .  A
C546       C4257   1.472       .  S
Cr547       O550   1.758       .  S
Cr548       O550   1.773       .  S
Cr549       O550   1.766       .  S
O551       Cr569   1.967   1_556  S
O551        C559   1.262       .  A
O552       Cr569   1.990       .  S
O552        C553   1.260   1_565  A
C553        O554   1.265       .  A
C553       C3817   1.475       .  S
O554       Cr570   2.013   1_545  S
O555       Cr570   2.021       .  S
O555        C556   1.269       .  A
C556        O557   1.261   1_554  A
C556       C4297   1.492       .  S
O557       Cr571   1.978   1_556  S
O558       Cr571   2.007   1_556  S
O558        C559   1.268       .  A
C559       C3877   1.477       .  S
O560       Cr569   1.980       .  S
O560        C568   1.258       .  A
O561       Cr569   1.967       .  S
O561        C562   1.257       .  A
C562        O563   1.273       .  A
C562       C3807   1.482       .  S
O563       Cr570   2.046       .  S
O564       Cr570   1.985       .  S
O564        C565   1.265       .  A
C565        O566   1.265       .  A
C565       C3847   1.476       .  S
O566       Cr571   1.990       .  S
O567       Cr571   1.987       .  S
O567        C568   1.257       .  A
C568       C3794   1.461       .  S
Cr569       O572   1.754       .  S
Cr570       O572   1.767       .  S
Cr571       O572   1.769       .  S
O573       Cr591   1.975       .  S
O573        C581   1.264       .  A
O574       Cr591   1.976       .  S
O574        C575   1.253       .  A
C575        O576   1.272       .  A
C575       C3774   1.497       .  S
O576       Cr592   2.054       .  S
O577       Cr592   2.034       .  S
O577        C578   1.272       .  A
C578        O579   1.260       .  A
C578       C3967   1.499       .  S
O579       Cr593   1.980       .  S
O580       Cr593   2.007       .  S
O580        C581   1.268       .  A
C581       C3764   1.480       .  S
O582       Cr591   1.978       .  S
O582        C590   1.257       .  A
O583       Cr591   1.975       .  S
O583        C584   1.262       .  A
C584        O585   1.277       .  A
C584       C4817   1.483       .  S
O585       Cr592   2.054       .  S
O586       Cr592   2.003       .  S
O586        C587   1.269       .  A
C587        O588   1.263       .  A
C587       C3787   1.484       .  S
O588       Cr593   1.985       .  S
O589       Cr593   1.995       .  S
O589        C590   1.257       .  A
C590       C3754   1.465       .  S
Cr591       O594   1.751       .  S
Cr592       O594   1.772       .  S
Cr593       O594   1.771       .  S
O595       Cr613   1.997   1_655  S
O595        C603   1.265       .  A
O596       Cr613   1.938   1_554  S
O596        C597   1.254       .  A
C597        O598   1.282       .  A
C597       C3744   1.484       .  S
O598       Cr614   2.074   1_554  S
O599       Cr614   1.993       .  S
O599        C600   1.265       .  A
C600        O601   1.268       .  A
C600       C3927   1.485       .  S
O601       Cr615   2.008       .  S
O602       Cr615   1.970   1_655  S
O602        C603   1.256       .  A
C603       C3797   1.459       .  S
O604       Cr613   1.965       .  S
O604        C612   1.258       .  A
O605       Cr613   2.008       .  S
O605        C606   1.260       .  A
C606        O607   1.258       .  A
C606       C3734   1.481       .  S
O607       Cr614   1.999       .  S
O608       Cr614   2.042       .  S
O608        C609   1.274       .  A
C609        O610   1.252       .  A
C609       C3784   1.476       .  S
O610       Cr615   1.945       .  S
O611       Cr615   2.011       .  S
O611        C612   1.268       .  A
C612       C3857   1.476       .  S
Cr613       O616   1.761       .  S
Cr614       O616   1.771       .  S
Cr615       O616   1.764       .  S
O617       Cr635   1.985       .  S
O617        C625   1.254       .  A
O618       Cr635   1.981       .  S
O618        C619   1.264       .  A
C619        O620   1.264       .  A
C619       C3674   1.473       .  S
O620       Cr636   1.989       .  S
O621       Cr636   2.058       .  S
O621        C622   1.282       .  A
C622        O623   1.260       .  A
C622       C3694   1.471       .  S
O623       Cr637   1.951       .  S
O624       Cr637   1.987       .  S
O624        C625   1.258       .  A
C625       C3687   1.462       .  S
O626       Cr635   2.010       .  S
O626        C634   1.269       .  A
O627       Cr635   1.935       .  S
O627        C628   1.250       .  A
C628        O629   1.271       .  A
C628       C3724   1.479       .  S
O629       Cr636   2.024       .  S
O630       Cr636   2.017       .  S
O630        C631   1.258       .  A
C631        O632   1.254       .  A
C631       C3707   1.481       .  S
O632       Cr637   1.987       .  S
O633       Cr637   1.965       .  S
O633        C634   1.259       .  A
C634       C3717   1.473       .  S
Cr635       O638   1.764       .  S
Cr636       O638   1.779       .  S
Cr637       O638   1.753       .  S
O639       Cr657   1.987   1_556  S
O639        C647   1.256   1_545  A
O640       Cr657   1.990       .  S
O640        C641   1.265       .  A
C641        O642   1.268   1_545  A
C641       C3637   1.489       .  S
O642       Cr658   2.005   1_565  S
O643       Cr658   2.076   1_565  S
O643        C644   1.286       .  A
C644        O645   1.258       .  A
C644       C3647   1.478       .  S
O645       Cr659   1.937       .  S
O646       Cr659   1.978   1_546  S
O646        C647   1.257   1_545  A
C647       C4837   1.463       .  S
O648       Cr657   2.013       .  S
O648        C656   1.272       .  A
O649       Cr657   1.937       .  S
O649        C650   1.252       .  A
C650        O651   1.273       .  A
C650       C3727   1.479       .  S
O651       Cr658   2.025       .  S
O652       Cr658   2.035       .  S
O652        C653   1.258       .  A
C653        O654   1.251   1_545  A
C653       C3654   1.491       .  S
O654       Cr659   1.982       .  S
O655       Cr659   1.970   1_545  S
O655        C656   1.263       .  A
C656       C3664   1.475       .  S
Cr657       O660   1.764       .  S
Cr658       O660   1.779       .  S
Cr659       O660   1.755   1_565  S
O661       Cr679   2.003       .  S
O661        C669   1.265       .  A
O662       Cr679   1.946   1_556  S
O662        C663   1.254       .  A
C663        O664   1.278       .  A
C663       C4847   1.474       .  S
O664       Cr680   2.058   1_556  S
O665       Cr680   1.992       .  S
O665        C666   1.265       .  A
C666        O667   1.265       .  A
C666       C3604   1.479       .  S
O667       Cr681   1.994       .  S
O668       Cr681   1.978       .  S
O668        C669   1.259       .  A
C669       C4307   1.465   1_554  S
O670       Cr679   1.971       .  S
O670        C678   1.259       .  A
O671       Cr679   2.012       .  S
O671        C672   1.263       .  A
C672        O673   1.257       .  A
C672       C3644   1.477       .  S
O673       Cr680   1.994       .  S
O674       Cr680   2.028       .  S
O674        C675   1.271       .  A
C675        O676   1.253       .  A
C675       C3627   1.463       .  S
O676       Cr681   1.952       .  S
O677       Cr681   1.993       .  S
O677        C678   1.265       .  A
C678       C3617   1.470       .  S
Cr679       O682   1.758       .  S
Cr680       O682   1.774       .  S
Cr681       O682   1.763       .  S
O683       Cr701   1.984       .  S
O683        C691   1.264       .  A
O684       Cr701   1.981       .  S
O684        C685   1.258       .  A
C685        O686   1.266       .  A
C685       C3574   1.474       .  S
O686       Cr702   2.017       .  S
O687       Cr702   2.035       .  S
O687        C688   1.275       .  A
C688        O689   1.262       .  A
C688       C3554   1.493       .  S
O689       Cr703   1.969       .  S
O690       Cr703   1.992       .  S
O690        C691   1.264       .  A
C691       C3564   1.477       .  S
O692       Cr701   1.978       .  S
O692        C700   1.259       .  A
O693       Cr701   1.964       .  S
O693        C694   1.258       .  A
C694        O695   1.272       .  A
C694       C3584   1.481       .  S
O695       Cr702   2.042       .  S
O696       Cr702   2.007       .  S
O696        C697   1.265       .  A
C697        O698   1.258       .  A
C697       C3624   1.482       .  S
O698       Cr703   1.979       .  S
O699       Cr703   1.993       .  S
O699        C700   1.261       .  A
C700       C3597   1.461       .  S
Cr701       O704   1.755       .  S
Cr702       O704   1.767       .  S
Cr703       O704   1.766       .  S
O705       Cr723   1.989       .  S
O705        C713   1.257       .  A
O706       Cr723   1.993       .  S
O706        C707   1.265       .  A
C707        O708   1.266       .  A
C707       C3514   1.485       .  S
O708       Cr724   1.999       .  S
O709       Cr724   2.061       .  S
O709        C710   1.282       .  A
C710        O711   1.258       .  A
C710       C3544   1.475       .  S
O711       Cr725   1.947       .  S
O712       Cr725   1.988       .  S
O712        C713   1.260       .  A
C713       C3534   1.464       .  S
O714       Cr723   2.006       .  S
O714        C722   1.270       .  A
O715       Cr723   1.945       .  S
O715        C716   1.253       .  A
C716        O717   1.270       .  A
C716       C3524   1.473       .  S
O717       Cr724   2.026       .  S
O718       Cr724   2.010       .  S
O718        C719   1.258       .  A
C719        O720   1.257       .  A
C719       C3904   1.485       .  S
O720       Cr725   2.005       .  S
O721       Cr725   1.971       .  S
O721        C722   1.263       .  A
C722       C4417   1.474       .  S
Cr723       O726   1.766       .  S
Cr724       O726   1.774       .  S
Cr725       O726   1.763       .  S
O727       Cr745   2.008       .  S
O727        C735   1.270       .  A
O728       Cr745   1.978       .  S
O728        C729   1.260       .  A
C729        O730   1.273       .  A
C729       C3494   1.495       .  S
O730       Cr746   2.031       .  S
O731       Cr746   2.008   1_554  S
O731        C732   1.264       .  A
C732        O733   1.261       .  A
C732       C3507   1.475       .  S
O733       Cr747   1.994   1_554  S
O734       Cr747   1.965   1_554  S
O734        C735   1.259   1_554  A
C735       C3667   1.475   1_556  S
O736       Cr745   1.982       .  S
O736        C744   1.257       .  A
O737       Cr745   1.994       .  S
O737        C738   1.265       .  A
C738        O739   1.265       .  A
C738       C3527   1.477       .  S
O739       Cr746   1.986       .  S
O740       Cr746   2.057       .  S
O740        C741   1.276       .  A
C741        O742   1.254       .  A
C741       C4327   1.480       .  S
O742       Cr747   1.954       .  S
O743       Cr747   1.986       .  S
O743        C744   1.260       .  A
C744       C4857   1.465       .  S
Cr745       O748   1.767       .  S
Cr746       O748   1.766       .  S
Cr747       O748   1.758       .  S
O749       Cr767   1.975       .  S
O749        C757   1.264       .  A
O750       Cr767   1.971   1_655  S
O750        C751   1.251       .  A
C751        O752   1.271       .  A
C751       C4447   1.493       .  S
O752       Cr768   2.058   1_655  S
O753       Cr768   2.023       .  S
O753        C754   1.269       .  A
C754        O755   1.264       .  A
C754       C3454   1.502       .  S
O755       Cr769   1.992       .  S
O756       Cr769   2.009       .  S
O756        C757   1.270       .  A
C757       C3937   1.481       .  S
O758       Cr767   1.966       .  S
O758        C766   1.253       .  A
O759       Cr767   1.970       .  S
O759        C760   1.258       .  A
C760        O761   1.275       .  A
C760       C3464   1.475       .  S
O761       Cr768   2.054       .  S
O762       Cr768   2.002       .  S
O762        C763   1.269       .  A
C763        O764   1.264       .  A
C763       C3484   1.480       .  S
O764       Cr769   1.982       .  S
O765       Cr769   2.004       .  S
O765        C766   1.261       .  A
C766       C3474   1.464       .  S
Cr767       O770   1.752       .  S
Cr768       O770   1.774       .  S
Cr769       O770   1.767       .  S
O771       Cr789   1.981       .  S
O771        C779   1.264       .  A
O772       Cr789   1.986       .  S
O772        C773   1.260       .  A
C773        O774   1.264       .  A
C773       C3437   1.471       .  S
O774       Cr790   2.008       .  S
O775       Cr790   2.023       .  S
O775        C776   1.272       .  A
C776        O777   1.263       .  A
C776       C3404   1.489       .  S
O777       Cr791   1.974       .  S
O778       Cr791   2.003       .  S
O778        C779   1.266       .  A
C779       C3424   1.482       .  S
O780       Cr789   1.979       .  S
O780        C788   1.260       .  A
O781       Cr789   1.965       .  S
O781        C782   1.257       .  A
C782        O783   1.270       .  A
C782       C3444   1.476       .  S
O783       Cr790   2.036       .  S
O784       Cr790   2.001       .  S
O784        C785   1.264       .  A
C785        O786   1.260       .  A
C785       C3487   1.470       .  S
O786       Cr791   1.984       .  S
O787       Cr791   1.993       .  S
O787        C788   1.260       .  A
C788       C3414   1.467       .  S
Cr789       O792   1.755       .  S
Cr790       O792   1.768       .  S
Cr791       O792   1.765       .  S
O793       Cr811   2.004       .  S
O793        C801   1.266       .  A
O794       Cr811   1.955       .  S
O794        C795   1.257       .  A
C795        O796   1.272       .  A
C795       C3364   1.483       .  S
O796       Cr812   2.030       .  S
O797       Cr812   2.004       .  S
O797        C798   1.263       .  A
C798        O799   1.262       .  A
C798       C3394   1.472       .  S
O799       Cr813   1.994       .  S
O800       Cr813   1.981       .  S
O800        C801   1.265       .  A
C801       C3384   1.481       .  S
O802       Cr811   1.983       .  S
O802        C810   1.257       .  A
O803       Cr811   1.993       .  S
O803        C804   1.261       .  A
C804        O805   1.261       .  A
C804       C3374   1.463       .  S
O805       Cr812   1.990       .  S
O806       Cr812   2.036       .  S
O806        C807   1.272       .  A
C807        O808   1.259       .  A
C807       C3837   1.480       .  S
O808       Cr813   1.968       .  S
O809       Cr813   1.981       .  S
O809        C810   1.261       .  A
C810       C4947   1.454       .  S
Cr811       O814   1.762       .  S
Cr812       O814   1.767       .  S
Cr813       O814   1.751       .  S
O815       Cr833   2.002       .  S
O815        C823   1.267       .  A
O816       Cr833   1.975       .  S
O816        C817   1.262       .  A
C817        O818   1.272       .  A
C817       C3334   1.490       .  S
O818       Cr834   2.027       .  S
O819       Cr834   2.017   1_455  S
O819        C820   1.267       .  A
C820        O821   1.260       .  A
C820       C3354   1.476       .  S
O821       Cr835   1.988   1_455  S
O822       Cr835   1.978   1_455  S
O822        C823   1.263   1_455  A
C823       C3344   1.479   1_655  S
O824       Cr833   1.992       .  S
O824        C832   1.259       .  A
O825       Cr833   1.984       .  S
O825        C826   1.261       .  A
C826        O827   1.265       .  A
C826       C3377   1.482       .  S
O827       Cr834   2.000       .  S
O828       Cr834   2.038       .  S
O828        C829   1.272       .  A
C829        O830   1.259       .  A
C829       C3957   1.487       .  S
O830       Cr835   1.975       .  S
O831       Cr835   1.979       .  S
O831        C832   1.259       .  A
C832       C4457   1.465       .  S
Cr833       O836   1.766       .  S
Cr834       O836   1.766       .  S
Cr835       O836   1.755       .  S
O837       Cr855   2.005       .  S
O837        C845   1.267       .  A
O838       Cr855   1.959       .  S
O838        C839   1.257       .  A
C839        O840   1.274       .  A
C839       C3304   1.481       .  S
O840       Cr856   2.046       .  S
O841       Cr856   2.003       .  S
O841        C842   1.264       .  A
C842        O843   1.263       .  A
C842       C4074   1.471       .  S
O843       Cr857   1.994       .  S
O844       Cr857   1.980       .  S
O844        C845   1.263       .  A
C845       C4394   1.483       .  S
O846       Cr855   1.984       .  S
O846        C854   1.257       .  A
O847       Cr855   1.984       .  S
O847        C848   1.262       .  A
C848        O849   1.262       .  A
C848       C3314   1.471       .  S
O849       Cr856   1.994       .  S
O850       Cr856   2.048       .  S
O850        C851   1.273       .  A
C851        O852   1.259       .  A
C851       C3327   1.484       .  S
O852       Cr857   1.967       .  S
O853       Cr857   1.992       .  S
O853        C854   1.263       .  A
C854       C3537   1.461       .  S
Cr855       O858   1.759       .  S
Cr856       O858   1.772       .  S
Cr857       O858   1.753       .  S
O859       Cr877   1.989       .  S
O859        C867   1.260       .  A
O860       Cr877   1.980       .  S
O860        C861   1.264       .  A
C861        O862   1.273       .  A
C861       C3254   1.488       .  S
O862       Cr878   2.024       .  S
O863       Cr878   2.001       .  S
O863        C864   1.265       .  A
C864        O865   1.263       .  A
C864       C3297   1.472       .  S
O865       Cr879   1.993       .  S
O866       Cr879   1.983       .  S
O866        C867   1.260       .  A
C867       C3284   1.461       .  S
O868       Cr877   1.993       .  S
O868        C876   1.263       .  A
O869       Cr877   1.973       .  S
O869        C870   1.257       .  A
C870        O871   1.265       .  A
C870       C3317   1.476       .  S
O871       Cr878   2.010       .  S
O872       Cr878   2.030       .  S
O872        C873   1.267       .  A
C873        O874   1.256       .  A
C873       C3274   1.476       .  S
O874       Cr879   1.966       .  S
O875       Cr879   1.985       .  S
O875        C876   1.262       .  A
C876       C3264   1.463       .  S
Cr877       O880   1.767       .  S
Cr878       O880   1.772       .  S
Cr879       O880   1.755       .  S
O881       Cr899   1.996       .  S
O881        C889   1.266       .  A
O882       Cr899   1.986       .  S
O882        C883   1.262       .  A
C883        O884   1.273       .  A
C883       C3224   1.501       .  S
O884       Cr900   2.037       .  S
O885       Cr900   2.023       .  S
O885        C886   1.269       .  A
C886        O887   1.260       .  A
C886       C4277   1.483       .  S
O887       Cr901   1.993       .  S
O888       Cr901   1.969       .  S
O888        C889   1.261       .  A
C889       C4977   1.471       .  S
O890       Cr899   1.994       .  S
O890        C898   1.260       .  A
O891       Cr899   1.982       .  S
O891        C892   1.261       .  A
C892        O893   1.267       .  A
C892       C3234   1.481       .  S
O893       Cr900   2.002       .  S
O894       Cr900   2.050       .  S
O894        C895   1.273       .  A
C895        O896   1.256       .  A
C895       C3244   1.481       .  S
O896       Cr901   1.962       .  S
O897       Cr901   1.983       .  S
O897        C898   1.259       .  A
C898       C3387   1.465       .  S
Cr899       O902   1.767       .  S
Cr900       O902   1.767       .  S
Cr901       O902   1.758       .  S
O903       Cr921   2.002       .  S
O903        C911   1.266       .  A
O904       Cr921   1.971       .  S
O904        C905   1.260       .  A
C905        O906   1.273       .  A
C905       C3184   1.488       .  S
O906       Cr922   2.027       .  S
O907       Cr922   2.000       .  S
O907        C908   1.262       .  A
C908        O909   1.260       .  A
C908       C3214   1.464       .  S
O909       Cr923   1.984       .  S
O910       Cr923   1.982       .  S
O910        C911   1.264       .  A
C911       C3267   1.482       .  S
O912       Cr921   1.986       .  S
O912        C920   1.259       .  A
O913       Cr921   1.991       .  S
O913        C914   1.261       .  A
C914        O915   1.260       .  A
C914       C3237   1.460       .  S
O915       Cr922   1.988       .  S
O916       Cr922   2.038       .  S
O916        C917   1.271       .  A
C917        O918   1.258       .  A
C917       C3204   1.479       .  S
O918       Cr923   1.968       .  S
O919       Cr923   1.980       .  S
O919        C920   1.260       .  A
C920       C3194   1.460       .  S
Cr921       O924   1.767       .  S
Cr922       O924   1.767       .  S
Cr923       O924   1.754       .  S
O925       Cr943   2.013       .  S
O925        C933   1.271       .  A
O926       Cr943   1.989       .  S
O926        C927   1.261       .  A
C927        O928   1.266       .  A
C927       C3137   1.487       .  S
O928       Cr944   2.006       .  S
O929       Cr944   2.045       .  S
O929        C930   1.271       .  A
C930        O931   1.256       .  A
C930       C3164   1.494       .  S
O931       Cr945   1.979       .  S
O932       Cr945   1.973       .  S
O932        C933   1.265       .  A
C933       C4787   1.484       .  S
O934       Cr943   2.007       .  S
O934        C942   1.260       .  A
O935       Cr943   1.991       .  S
O935        C936   1.267       .  A
C936        O937   1.267       .  A
C936       C3174   1.480       .  S
O937       Cr944   1.989       .  S
O938       Cr944   2.040       .  S
O938        C939   1.269       .  A
C939        O940   1.258       .  A
C939       C3147   1.465       .  S
O940       Cr945   1.973       .  S
O941       Cr945   1.975       .  S
O941        C942   1.254       .  A
C942       C3157   1.471       .  S
Cr943       O946   1.766       .  S
Cr944       O946   1.781       .  S
Cr945       O946   1.745       .  S
O947       Cr965   1.997       .  S
O947        C955   1.266       .  A
O948       Cr965   1.967       .  S
O948        C949   1.258       .  A
C949        O950   1.271       .  A
C949       C3104   1.486       .  S
O950       Cr966   2.023       .  S
O951       Cr966   2.006       .  S
O951        C952   1.264       .  A
C952        O953   1.261       .  A
C952       C3114   1.470       .  S
O953       Cr967   1.989       .  S
O954       Cr967   1.977       .  S
O954        C955   1.263       .  A
C955       C3197   1.477       .  S
O956       Cr965   1.987       .  S
O956        C964   1.258       .  A
O957       Cr965   1.987       .  S
O957        C958   1.262       .  A
C958        O959   1.263       .  A
C958       C3177   1.465       .  S
O959       Cr966   1.993       .  S
O960       Cr966   2.032       .  S
O960        C961   1.270       .  A
C961        O962   1.259       .  A
C961       C3124   1.473       .  S
O962       Cr967   1.966       .  S
O963       Cr967   1.987       .  S
O963        C964   1.259       .  A
C964       C3287   1.456       .  S
Cr965       O968   1.760       .  S
Cr966       O968   1.767       .  S
Cr967       O968   1.754       .  S
O969       Cr987   1.984       .  S
O969        C977   1.263       .  A
O970       Cr987   1.974       .  S
O970        C971   1.255       .  A
C971        O972   1.268       .  A
C971       C4534   1.481       .  S
O972       Cr988   2.030       .  S
O973       Cr988   2.027       .  S
O973        C974   1.271       .  A
C974        O975   1.258       .  A
C974       C3064   1.482       .  S
O975       Cr989   1.961       .  S
O976       Cr989   2.007       .  S
O976        C977   1.266       .  A
C977       C3084   1.479       .  S
O978       Cr987   1.972       .  S
O978        C986   1.257       .  A
O979       Cr987   1.968       .  S
O979        C980   1.261       .  A
C980        O981   1.271       .  A
C980       C3074   1.473       .  S
O981       Cr988   2.030       .  S
O982       Cr988   2.004       .  S
O982        C983   1.265       .  A
C983        O984   1.261       .  A
C983       C3094   1.481       .  S
O984       Cr989   1.983       .  S
O985       Cr989   1.992       .  S
O985        C986   1.259       .  A
C986       C3567   1.456       .  S
Cr987       O990   1.746       .  S
Cr988       O990   1.773       .  S
Cr989       O990   1.763       .  S
O991      Cr1009   1.974       .  S
O991        C999   1.264       .  A
O992      Cr1009   1.980       .  S
O992        C993   1.256       .  A
C993        O994   1.266       .  A
C993       C3207   1.474       .  S
O994      Cr1010   2.022       .  S
O995      Cr1010   2.018       .  S
O995        C996   1.270       .  A
C996        O997   1.262       .  A
C996       C3034   1.485       .  S
O997      Cr1011   1.980       .  S
O998      Cr1011   1.999       .  S
O998        C999   1.267       .  A
C999       C3044   1.472       .  S
O1000     Cr1009   1.974       .  S
O1000      C1008   1.256       .  A
O1001     Cr1009   1.961       .  S
O1001      C1002   1.258       .  A
C1002      O1003   1.272       .  A
C1002      C3117   1.474       .  S
O1003     Cr1010   2.038       .  S
O1004     Cr1010   2.003       .  S
O1004      C1005   1.266       .  A
C1005      O1006   1.262       .  A
C1005      C3097   1.474       .  S
O1006     Cr1011   1.984       .  S
O1007     Cr1011   1.999       .  S
O1007      C1008   1.261       .  A
C1008      C3054   1.469       .  S
Cr1009     O1012   1.756       .  S
Cr1010     O1012   1.765       .  S
Cr1011     O1012   1.764       .  S
O1013     Cr1031   1.967       .  S
O1013      C1021   1.261       .  A
O1014     Cr1031   1.992       .  S
O1014      C1015   1.261       .  A
C1015      O1016   1.265       .  A
C1015      C4744   1.473       .  S
O1016     Cr1032   2.009       .  S
O1017     Cr1032   2.012       .  S
O1017      C1018   1.269       .  A
C1018      O1019   1.261       .  A
C1018      C2994   1.484       .  S
O1019     Cr1033   1.975       .  S
O1020     Cr1033   2.001       .  S
O1020      C1021   1.265       .  A
C1021      C3004   1.457       .  S
O1022     Cr1031   1.976       .  S
O1022      C1030   1.258       .  A
O1023     Cr1031   1.964       .  S
O1023      C1024   1.255       .  A
C1024      O1025   1.269       .  A
C1024      C3014   1.467       .  S
O1025     Cr1032   2.035       .  S
O1026     Cr1032   1.988       .  S
O1026      C1027   1.263       .  A
C1027      O1028   1.263       .  A
C1027      C3024   1.463       .  S
O1028     Cr1033   1.990       .  S
O1029     Cr1033   2.003       .  S
O1029      C1030   1.263       .  A
C1030      C3427   1.471       .  S
Cr1031     O1034   1.748       .  S
Cr1032     O1034   1.767       .  S
Cr1033     O1034   1.767       .  S
O1035     Cr1053   1.975       .  S
O1035      C1043   1.262       .  A
O1036     Cr1053   1.990       .  S
O1036      C1037   1.262       .  A
C1037      O1038   1.264       .  A
C1037      C3127   1.468       .  S
O1038     Cr1054   2.002       .  S
O1039     Cr1054   2.020       .  S
O1039      C1040   1.270       .  A
C1040      O1041   1.262       .  A
C1040      C2974   1.488       .  S
O1041     Cr1055   1.977       .  S
O1042     Cr1055   1.997       .  S
O1042      C1043   1.264       .  A
C1043      C3057   1.475       .  S
O1044     Cr1053   1.982       .  S
O1044      C1052   1.260       .  A
O1045     Cr1053   1.964       .  S
O1045      C1046   1.255       .  A
C1046      O1047   1.269       .  A
C1046      C3294   1.471       .  S
O1047     Cr1054   2.037       .  S
O1048     Cr1054   1.995       .  S
O1048      C1049   1.266       .  A
C1049      O1050   1.261       .  A
C1049      C3027   1.477       .  S
O1050     Cr1055   1.983       .  S
O1051     Cr1055   1.993       .  S
O1051      C1052   1.261       .  A
C1052      C2984   1.466       .  S
Cr1053     O1056   1.753       .  S
Cr1054     O1056   1.769       .  S
Cr1055     O1056   1.765       .  S
O1057     Cr1075   1.967       .  S
O1057      C1065   1.261       .  A
O1058     Cr1075   1.991       .  S
O1058      C1059   1.260       .  A
C1059      O1060   1.264       .  A
C1059      C4647   1.473       .  S
O1060     Cr1076   2.010       .  S
O1061     Cr1076   2.032       .  S
O1061      C1062   1.273       .  A
C1062      O1063   1.260       .  A
C1062      C2924   1.496       .  S
O1063     Cr1077   1.979       .  S
O1064     Cr1077   2.002       .  S
O1064      C1065   1.268       .  A
C1065      C2954   1.475       .  S
O1066     Cr1075   1.986       .  S
O1066      C1074   1.259       .  A
O1067     Cr1075   1.953       .  S
O1067      C1068   1.255       .  A
C1068      O1069   1.273       .  A
C1068      C2944   1.475       .  S
O1069     Cr1076   2.045       .  S
O1070     Cr1076   1.991       .  S
O1070      C1071   1.263       .  A
C1071      O1072   1.265       .  A
C1071      C2964   1.468       .  S
O1072     Cr1077   1.998       .  S
O1073     Cr1077   1.988       .  S
O1073      C1074   1.259       .  A
C1074      C2937   1.459       .  S
Cr1075     O1078   1.757       .  S
Cr1076     O1078   1.766       .  S
Cr1077     O1078   1.762       .  S
O1079     Cr1097   1.982       .  S
O1079      C1087   1.264       .  A
O1080     Cr1097   1.984       .  S
O1080      C1081   1.260       .  A
C1081      O1082   1.265       .  A
C1081      C3277   1.470       .  S
O1082     Cr1098   2.010       .  S
O1083     Cr1098   2.004       .  S
O1083      C1084   1.268       .  A
C1084      O1085   1.264       .  A
C1084      C2914   1.479       .  S
O1085     Cr1099   1.974       .  S
O1086     Cr1099   2.002       .  S
O1086      C1087   1.265       .  A
C1087      C2987   1.482       .  S
O1088     Cr1097   1.979       .  S
O1088      C1096   1.260       .  A
O1089     Cr1097   1.964       .  S
O1089      C1090   1.257       .  A
C1090      O1091   1.265       .  A
C1090      C3217   1.469       .  S
O1091     Cr1098   2.020       .  S
O1092     Cr1098   2.011       .  S
O1092      C1093   1.266       .  A
C1093      O1094   1.259       .  A
C1093      C2967   1.487       .  S
O1094     Cr1099   1.981       .  S
O1095     Cr1099   1.991       .  S
O1095      C1096   1.260       .  A
C1096      C3047   1.465       .  S
Cr1097     O1100   1.754       .  S
Cr1098     O1100   1.769       .  S
Cr1099     O1100   1.764       .  S
O1101     Cr1119   1.996       .  S
O1101      C1109   1.266       .  A
O1102     Cr1119   1.940       .  S
O1102      C1103   1.254       .  A
C1103      O1104   1.277       .  A
C1103      C4907   1.475       .  S
O1104     Cr1120   2.055   1_565  S
O1105     Cr1120   2.000   1_565  S
O1105      C1106   1.266   1_565  A
C1106      O1107   1.265       .  A
C1106      C2874   1.486   1_545  S
O1107     Cr1121   1.999       .  S
O1108     Cr1121   1.977       .  S
O1108      C1109   1.260   1_545  A
C1109      C4137   1.465       .  S
O1110     Cr1119   1.979   1_545  S
O1110      C1118   1.259       .  A
O1111     Cr1119   2.004       .  S
O1111      C1112   1.261   1_565  A
C1112      O1113   1.258       .  A
C1112      C2894   1.481       .  S
O1113     Cr1120   2.004       .  S
O1114     Cr1120   2.023       .  S
O1114      C1115   1.270       .  A
C1115      O1116   1.255       .  A
C1115      C2904   1.461       .  S
O1116     Cr1121   1.950       .  S
O1117     Cr1121   2.002       .  S
O1117      C1118   1.265       .  A
C1118      C2884   1.470       .  S
Cr1119     O1122   1.760   1_565  S
Cr1120     O1122   1.775       .  S
Cr1121     O1122   1.766       .  S
O1123     Cr1141   1.980       .  S
O1123      C1131   1.262       .  A
O1124     Cr1141   1.995       .  S
O1124      C1125   1.263       .  A
C1125      O1126   1.264       .  A
C1125      C2844   1.471       .  S
O1126     Cr1142   2.001       .  S
O1127     Cr1142   2.020       .  S
O1127      C1128   1.271       .  A
C1128      O1129   1.261       .  A
C1128      C2834   1.487       .  S
O1129     Cr1143   1.973       .  S
O1130     Cr1143   2.000       .  S
O1130      C1131   1.266       .  A
C1131      C2934   1.474       .  S
O1132     Cr1141   1.986       .  S
O1132      C1140   1.262       .  A
O1133     Cr1141   1.967       .  S
O1133      C1134   1.257       .  A
C1134      O1135   1.270       .  A
C1134      C2857   1.477       .  S
O1135     Cr1142   2.034       .  S
O1136     Cr1142   1.987       .  S
O1136      C1137   1.263       .  A
C1137      O1138   1.262       .  A
C1137      C2907   1.477       .  S
O1138     Cr1143   1.987       .  S
O1139     Cr1143   1.986       .  S
O1139      C1140   1.258       .  A
C1140      C2864   1.464       .  S
Cr1141     O1144   1.754       .  S
Cr1142     O1144   1.770       .  S
Cr1143     O1144   1.767       .  S
O1145     Cr1163   1.990       .  S
O1145      C1153   1.258       .  A
O1146     Cr1163   1.999       .  S
O1146      C1147   1.270       .  A
C1147      O1148   1.266       .  A
C1147      C2804   1.477       .  S
O1148     Cr1164   1.986       .  S
O1149     Cr1164   2.051       .  S
O1149      C1150   1.276       .  A
C1150      O1151   1.256       .  A
C1150      C2824   1.473       .  S
O1151     Cr1165   1.956       .  S
O1152     Cr1165   1.992       .  S
O1152      C1153   1.260       .  A
C1153      C3154   1.473       .  S
O1154     Cr1163   2.003       .  S
O1154      C1162   1.268       .  A
O1155     Cr1163   1.958       .  S
O1155      C1156   1.252       .  A
C1156      O1157   1.267       .  A
C1156      C2814   1.472       .  S
O1157     Cr1164   2.025       .  S
O1158     Cr1164   2.028       .  S
O1158      C1159   1.265       .  A
C1159      O1160   1.261       .  A
C1159      C3777   1.494       .  S
O1160     Cr1165   1.994       .  S
O1161     Cr1165   1.960       .  S
O1161      C1162   1.260       .  A
C1162      C4807   1.467       .  S
Cr1163     O1166   1.764       .  S
Cr1164     O1166   1.783       .  S
Cr1165     O1166   1.753       .  S
O1167     Cr1185   2.016       .  S
O1167      C1175   1.271       .  A
O1168     Cr1185   1.969       .  S
O1168      C1169   1.257       .  A
C1169      O1170   1.274       .  A
C1169      C2774   1.495       .  S
O1170     Cr1186   2.038       .  S
O1171     Cr1186   2.002   1_545  S
O1171      C1172   1.263       .  A
C1172      O1173   1.262   1_545  A
C1172      C2794   1.471       .  S
O1173     Cr1187   1.996       .  S
O1174     Cr1187   1.965       .  S
O1174      C1175   1.259       .  A
C1175      C2784   1.478       .  S
O1176     Cr1185   1.980       .  S
O1176      C1184   1.254       .  A
O1177     Cr1185   2.003       .  S
O1177      C1178   1.267       .  A
C1178      O1179   1.264       .  A
C1178      C2817   1.484       .  S
O1179     Cr1186   1.981       .  S
O1180     Cr1186   2.058       .  S
O1180      C1181   1.276       .  A
C1181      O1182   1.256       .  A
C1181      C4127   1.482       .  S
O1182     Cr1187   1.958       .  S
O1183     Cr1187   1.989       .  S
O1183      C1184   1.261       .  A
C1184      C4917   1.457       .  S
Cr1185     O1188   1.762       .  S
Cr1186     O1188   1.766       .  S
Cr1187     O1188   1.754       .  S
O1189     Cr1207   1.987       .  S
O1189      C1197   1.262       .  A
O1190     Cr1207   1.949       .  S
O1190      C1191   1.249       .  A
C1191      O1192   1.276       .  A
C1191      C2757   1.476       .  S
O1192     Cr1208   2.070       .  S
O1193     Cr1208   2.019       .  S
O1193      C1194   1.272       .  A
C1194      O1195   1.268       .  A
C1194      C4244   1.499       .  S
O1195     Cr1209   1.996       .  S
O1196     Cr1209   1.986       .  S
O1196      C1197   1.259       .  A
C1197      C2867   1.466       .  S
O1198     Cr1207   1.967       .  S
O1198      C1206   1.260       .  A
O1199     Cr1207   2.016       .  S
O1199      C1200   1.263       .  A
C1200      O1201   1.263       .  A
C1200      C4667   1.490       .  S
O1201     Cr1208   2.013       .  S
O1202     Cr1208   2.028       .  S
O1202      C1203   1.272       .  A
C1203      O1204   1.253       .  A
C1203      C2767   1.457       .  S
O1204     Cr1209   1.947       .  S
O1205     Cr1209   2.006       .  S
O1205      C1206   1.269       .  A
C1206      C2957   1.475       .  S
Cr1207     O1210   1.747       .  S
Cr1208     O1210   1.773       .  S
Cr1209     O1210   1.757       .  S
O1211     Cr1229   1.974   1_565  S
O1211      C1219   1.262       .  A
O1212     Cr1229   1.970       .  S
O1212      C1213   1.247       .  A
C1213      O1214   1.269       .  A
C1213      C3657   1.497       .  S
O1214     Cr1230   2.060       .  S
O1215     Cr1230   2.036       .  S
O1215      C1216   1.273       .  A
C1216      O1217   1.261   1_545  A
C1216      C4194   1.497   1_545  S
O1217     Cr1231   1.972       .  S
O1218     Cr1231   1.998       .  S
O1218      C1219   1.268       .  A
C1219      C3614   1.470       .  S
O1220     Cr1229   1.968       .  S
O1220      C1228   1.254       .  A
O1221     Cr1229   1.953       .  S
O1221      C1222   1.259       .  A
C1222      O1223   1.280       .  A
C1222      C3504   1.479       .  S
O1223     Cr1230   2.064       .  S
O1224     Cr1230   2.000       .  S
O1224      C1225   1.267       .  A
C1225      O1226   1.260       .  A
C1225      C2764   1.473       .  S
O1226     Cr1231   1.975   1_545  S
O1227     Cr1231   2.005   1_545  S
O1227      C1228   1.260       .  A
C1228      C4317   1.464       .  S
Cr1229     O1232   1.751       .  S
Cr1230     O1232   1.769       .  S
Cr1231     O1232   1.762   1_565  S
O1233     Cr1251   1.985       .  S
O1233      C1241   1.259       .  A
O1234     Cr1251   1.954       .  S
O1234      C1235   1.258       .  A
C1235      O1236   1.281       .  A
C1235      C4794   1.477       .  S
O1236     Cr1252   2.059       .  S
O1237     Cr1252   1.992       .  S
O1237      C1238   1.265       .  A
C1238      O1239   1.264       .  A
C1238      C2724   1.472       .  S
O1239     Cr1253   1.982       .  S
O1240     Cr1253   1.989       .  S
O1240      C1241   1.257       .  A
C1241      C3757   1.466       .  S
O1242     Cr1251   1.975       .  S
O1242      C1250   1.263       .  A
O1243     Cr1251   1.986       .  S
O1243      C1244   1.255       .  A
C1244      O1245   1.261       .  A
C1244      C3167   1.490       .  S
O1245     Cr1252   2.027       .  S
O1246     Cr1252   2.025       .  S
O1246      C1247   1.270       .  A
C1247      O1248   1.254       .  A
C1247      C2734   1.466       .  S
O1248     Cr1253   1.954       .  S
O1249     Cr1253   2.002       .  S
O1249      C1250   1.268       .  A
C1250      C2744   1.473       .  S
Cr1251     O1254   1.754       .  S
Cr1252     O1254   1.780       .  S
Cr1253     O1254   1.766       .  S
O1255     Cr1273   1.965       .  S
O1255      C1263   1.259   1_556  A
O1256     Cr1273   1.999       .  S
O1256      C1257   1.262       .  A
C1257      O1258   1.266       .  A
C1257      C2717   1.477       .  S
O1258     Cr1274   2.011       .  S
O1259     Cr1274   2.035       .  S
O1259      C1260   1.272       .  A
C1260      O1261   1.258       .  A
C1260      C2674   1.493       .  S
O1261     Cr1275   1.969       .  S
O1262     Cr1275   2.000   1_554  S
O1262      C1263   1.266       .  A
C1263      C2704   1.474       .  S
O1264     Cr1273   1.992       .  S
O1264      C1272   1.262       .  A
O1265     Cr1273   1.959       .  S
O1265      C1266   1.256       .  A
C1266      O1267   1.273       .  A
C1266      C2694   1.480       .  S
O1267     Cr1274   2.050       .  S
O1268     Cr1274   1.996       .  S
O1268      C1269   1.267       .  A
C1269      O1270   1.266       .  A
C1269      C2737   1.482       .  S
O1270     Cr1275   1.997       .  S
O1271     Cr1275   1.974       .  S
O1271      C1272   1.256       .  A
C1272      C2684   1.457       .  S
Cr1273     O1276   1.756       .  S
Cr1274     O1276   1.767       .  S
Cr1275     O1276   1.764       .  S
O1277     Cr1295   1.976       .  S
O1277      C1285   1.264       .  A
O1278     Cr1295   1.985       .  S
O1278      C1279   1.257       .  A
C1279      O1280   1.266       .  A
C1279      C3324   1.478       .  S
O1280     Cr1296   2.023       .  S
O1281     Cr1296   2.019       .  S
O1281      C1282   1.271       .  A
C1282      O1283   1.261       .  A
C1282      C2837   1.488       .  S
O1283     Cr1297   1.973       .  S
O1284     Cr1297   2.006       .  S
O1284      C1285   1.268       .  A
C1285      C4067   1.476       .  S
O1286     Cr1295   1.973       .  S
O1286      C1294   1.257       .  A
O1287     Cr1295   1.967       .  S
O1287      C1288   1.259       .  A
C1288      O1289   1.274       .  A
C1288      C3547   1.479       .  S
O1289     Cr1296   2.042       .  S
O1290     Cr1296   2.006       .  S
O1290      C1291   1.267       .  A
C1291      O1292   1.263       .  A
C1291      C2664   1.489       .  S
O1292     Cr1297   1.987       .  S
O1293     Cr1297   1.998       .  S
O1293      C1294   1.260       .  A
C1294      C3894   1.469       .  S
Cr1295     O1298   1.756       .  S
Cr1296     O1298   1.765       .  S
Cr1297     O1298   1.765       .  S
O1299     Cr1317   1.973   1_565  S
O1299      C1307   1.262       .  A
O1300     Cr1317   1.989   1_565  S
O1300      C1301   1.261       .  A
C1301      O1302   1.265       .  A
C1301      C2654   1.471       .  S
O1302     Cr1318   2.006   1_565  S
O1303     Cr1318   2.034       .  S
O1303      C1304   1.274       .  A
C1304      O1305   1.262       .  A
C1304      C2877   1.495   1_545  S
O1305     Cr1319   1.978       .  S
O1306     Cr1319   2.026       .  S
O1306      C1307   1.270   1_545  A
C1307      C4207   1.490       .  S
O1308     Cr1317   1.978       .  S
O1308      C1316   1.259       .  A
O1309     Cr1317   1.965       .  S
O1309      C1310   1.255       .  A
C1310      O1311   1.272       .  A
C1310      C4714   1.485       .  S
O1311     Cr1318   2.048       .  S
O1312     Cr1318   1.993       .  S
O1312      C1313   1.263       .  A
C1313      O1314   1.265       .  A
C1313      C2667   1.470       .  S
O1314     Cr1319   2.004       .  S
O1315     Cr1319   1.984       .  S
O1315      C1316   1.257       .  A
C1316      C2644   1.458       .  S
Cr1317     O1320   1.755       .  S
Cr1318     O1320   1.770       .  S
Cr1319     O1320   1.771       .  S
O1321     Cr1339   1.976       .  S
O1321      C1329   1.263       .  A
O1322     Cr1339   1.992       .  S
O1322      C1323   1.262       .  A
C1323      O1324   1.268       .  A
C1323      C2627   1.477       .  S
O1324     Cr1340   2.017       .  S
O1325     Cr1340   2.019       .  S
O1325      C1326   1.270       .  A
C1326      O1327   1.259       .  A
C1326      C2727   1.484       .  S
O1327     Cr1341   1.970       .  S
O1328     Cr1341   1.991       .  S
O1328      C1329   1.263       .  A
C1329      C3594   1.475       .  S
O1330     Cr1339   1.984       .  S
O1330      C1338   1.260       .  A
O1331     Cr1339   1.968       .  S
O1331      C1332   1.257       .  A
C1332      O1333   1.267       .  A
C1332      C4557   1.466       .  S
O1333     Cr1340   2.028       .  S
O1334     Cr1340   2.003       .  S
O1334      C1335   1.266       .  A
C1335      O1336   1.261       .  A
C1335      C2634   1.480       .  S
O1336     Cr1341   1.983       .  S
O1337     Cr1341   1.989       .  S
O1337      C1338   1.260       .  A
C1338      C3087   1.462       .  S
Cr1339     O1342   1.748       .  S
Cr1340     O1342   1.771       .  S
Cr1341     O1342   1.764       .  S
O1343     Cr1361   1.986   1_556  S
O1343      C1351   1.264       .  A
O1344     Cr1361   1.990       .  S
O1344      C1345   1.262       .  A
C1345      O1346   1.264       .  A
C1345      C2617   1.471       .  S
O1346     Cr1362   2.003       .  S
O1347     Cr1362   2.038       .  S
O1347      C1348   1.276       .  A
C1348      O1349   1.262   1_554  A
C1348      C2677   1.492       .  S
O1349     Cr1363   1.969   1_556  S
O1350     Cr1363   1.997   1_556  S
O1350      C1351   1.263       .  A
C1351      C3477   1.481       .  S
O1352     Cr1361   1.987       .  S
O1352      C1360   1.263       .  A
O1353     Cr1361   1.966       .  S
O1353      C1354   1.257       .  A
C1354      O1355   1.271       .  A
C1354      C3357   1.483       .  S
O1355     Cr1362   2.041       .  S
O1356     Cr1362   2.003       .  S
O1356      C1357   1.262       .  A
C1357      O1358   1.259       .  A
C1357      C2637   1.473       .  S
O1358     Cr1363   1.982       .  S
O1359     Cr1363   1.988       .  S
O1359      C1360   1.260       .  A
C1360      C3947   1.464       .  S
Cr1361     O1364   1.754       .  S
Cr1362     O1364   1.770       .  S
Cr1363     O1364   1.767       .  S
O1365     Cr1383   1.984       .  S
O1365      C1373   1.262       .  A
O1366     Cr1383   1.970       .  S
O1366      C1367   1.252       .  A
C1367      O1368   1.269       .  A
C1367      C3144   1.482       .  S
O1368     Cr1384   2.037       .  S
O1369     Cr1384   2.013       .  S
O1369      C1370   1.269       .  A
C1370      O1371   1.263       .  A
C1370      C3407   1.489       .  S
O1371     Cr1385   1.981       .  S
O1372     Cr1385   1.998       .  S
O1372      C1373   1.267       .  A
C1373      C2747   1.476       .  S
O1374     Cr1383   1.967       .  S
O1374      C1382   1.255       .  A
O1375     Cr1383   1.974       .  S
O1375      C1376   1.262       .  A
C1376      O1377   1.272       .  A
C1376      C2827   1.478       .  S
O1377     Cr1384   2.031       .  S
O1378     Cr1384   1.997       .  S
O1378      C1379   1.265       .  A
C1379      O1380   1.260       .  A
C1379      C2604   1.474       .  S
O1380     Cr1385   1.974       .  S
O1381     Cr1385   2.007       .  S
O1381      C1382   1.262       .  A
C1382      C3767   1.466       .  S
Cr1383     O1386   1.747       .  S
Cr1384     O1386   1.772       .  S
Cr1385     O1386   1.766       .  S
O1387     Cr1405   1.982       .  S
O1387      C1395   1.267       .  A
O1388     Cr1405   1.975   1_655  S
O1388      C1389   1.252       .  A
C1389      O1390   1.267       .  A
C1389      C2594   1.487       .  S
O1390     Cr1406   2.043   1_655  S
O1391     Cr1406   2.027       .  S
O1391      C1392   1.270       .  A
C1392      O1393   1.264       .  A
C1392      C3457   1.503       .  S
O1393     Cr1407   1.987       .  S
O1394     Cr1407   2.007       .  S
O1394      C1395   1.269       .  A
C1395      C4017   1.483       .  S
O1396     Cr1405   1.970       .  S
O1396      C1404   1.253       .  A
O1397     Cr1405   1.972       .  S
O1397      C1398   1.262       .  A
C1398      O1399   1.276       .  A
C1398      C4517   1.482       .  S
O1399     Cr1406   2.046       .  S
O1400     Cr1406   1.983       .  S
O1400      C1401   1.262       .  A
C1401      O1402   1.262       .  A
C1401      C2607   1.453       .  S
O1402     Cr1407   1.981       .  S
O1403     Cr1407   2.011       .  S
O1403      C1404   1.262       .  A
C1404      C2584   1.471       .  S
Cr1405     O1408   1.755       .  S
Cr1406     O1408   1.778       .  S
Cr1407     O1408   1.768       .  S
O1409     Cr1427   1.987       .  S
O1409      C1417   1.259       .  A
O1410     Cr1427   1.994       .  S
O1410      C1411   1.266   1_565  A
C1411      O1412   1.268       .  A
C1411      C2554   1.491   1_545  S
O1412     Cr1428   2.013       .  S
O1413     Cr1428   2.080   1_655  S
O1413      C1414   1.285       .  A
C1414      O1415   1.256       .  A
C1414      C2897   1.483       .  S
O1415     Cr1429   1.942   1_655  S
O1416     Cr1429   1.976   1_565  S
O1416      C1417   1.259       .  A
C1417      C4897   1.455       .  S
O1418     Cr1427   2.007       .  S
O1418      C1426   1.269   1_565  A
O1419     Cr1427   1.950   1_545  S
O1419      C1420   1.254       .  A
C1420      O1421   1.276       .  A
C1420      C2567   1.482       .  S
O1421     Cr1428   2.044       .  S
O1422     Cr1428   2.034       .  S
O1422      C1423   1.261       .  A
C1423      O1424   1.252       .  A
C1423      C2574   1.493       .  S
O1424     Cr1429   1.981       .  S
O1425     Cr1429   1.977       .  S
O1425      C1426   1.263       .  A
C1426      C2787   1.478       .  S
Cr1427     O1430   1.757   1_565  S
Cr1428     O1430   1.773       .  S
Cr1429     O1430   1.752       .  S
O1431     Cr1449   1.994       .  S
O1431      C1439   1.268       .  A
O1432     Cr1449   1.975       .  S
O1432      C1433   1.260       .  A
C1433      O1434   1.272       .  A
C1433      C2514   1.498       .  S
O1434     Cr1450   2.031       .  S
O1435     Cr1450   2.038       .  S
O1435      C1436   1.271       .  A
C1436      O1437   1.256       .  A
C1436      C2524   1.490       .  S
O1437     Cr1451   1.990       .  S
O1438     Cr1451   1.973       .  S
O1438      C1439   1.264       .  A
C1439      C3714   1.472       .  S
O1440     Cr1449   1.995       .  S
O1440      C1448   1.258       .  A
O1441     Cr1449   1.982       .  S
O1441      C1442   1.261       .  A
C1442      O1443   1.268       .  A
C1442      C2564   1.486       .  S
O1443     Cr1450   2.009       .  S
O1444     Cr1450   2.044       .  S
O1444      C1445   1.275       .  A
C1445      O1446   1.259       .  A
C1445      C2534   1.479       .  S
O1446     Cr1451   1.963       .  S
O1447     Cr1451   1.974       .  S
O1447      C1448   1.256       .  A
C1448      C2547   1.467       .  S
Cr1449     O1452   1.767       .  S
Cr1450     O1452   1.766       .  S
Cr1451     O1452   1.761       .  S
O1453     Cr1471   1.966       .  S
O1453      C1461   1.259       .  A
O1454     Cr1471   1.992       .  S
O1454      C1455   1.260       .  A
C1455      O1456   1.265       .  A
C1455      C3247   1.477       .  S
O1456     Cr1472   2.014       .  S
O1457     Cr1472   2.026       .  S
O1457      C1458   1.272       .  A
C1458      O1459   1.262       .  A
C1458      C3557   1.493       .  S
O1459     Cr1473   1.977       .  S
O1460     Cr1473   2.001       .  S
O1460      C1461   1.268       .  A
C1461      C4267   1.473       .  S
O1462     Cr1471   1.984       .  S
O1462      C1470   1.261       .  A
O1463     Cr1471   1.956       .  S
O1463      C1464   1.255       .  A
C1464      O1465   1.273       .  A
C1464      C3397   1.475       .  S
O1465     Cr1472   2.047       .  S
O1466     Cr1472   1.999       .  S
O1466      C1467   1.266       .  A
C1467      O1468   1.263       .  A
C1467      C2504   1.471       .  S
O1468     Cr1473   1.987       .  S
O1469     Cr1473   1.994       .  S
O1469      C1470   1.260       .  A
C1470      C3827   1.471       .  S
Cr1471     O1474   1.755       .  S
Cr1472     O1474   1.765       .  S
Cr1473     O1474   1.765       .  S
O1475     Cr1493   1.970       .  S
O1475      C1483   1.259       .  A
O1476     Cr1493   1.982   1_556  S
O1476      C1477   1.258       .  A
C1477      O1478   1.269       .  A
C1477      C2487   1.486       .  S
O1478     Cr1494   2.029   1_556  S
O1479     Cr1494   2.024       .  S
O1479      C1480   1.272       .  A
C1480      O1481   1.261       .  A
C1480      C3607   1.487       .  S
O1481     Cr1495   1.976       .  S
O1482     Cr1495   2.013       .  S
O1482      C1483   1.267       .  A
C1483      C2687   1.473       .  S
O1484     Cr1493   1.981       .  S
O1484      C1492   1.257       .  A
O1485     Cr1493   1.964       .  S
O1485      C1486   1.259       .  A
C1486      O1487   1.271       .  A
C1486      C4597   1.471       .  S
O1487     Cr1494   2.041       .  S
O1488     Cr1494   1.995       .  S
O1488      C1489   1.265       .  A
C1489      O1490   1.264       .  A
C1489      C2507   1.480       .  S
O1490     Cr1495   1.988       .  S
O1491     Cr1495   2.000       .  S
O1491      C1492   1.260       .  A
C1492      C2497   1.464       .  S
Cr1493     O1496   1.743       .  S
Cr1494     O1496   1.775       .  S
Cr1495     O1496   1.765       .  S
O1497     Cr1515   1.981       .  S
O1497      C1505   1.266       .  A
O1498     Cr1515   1.978       .  S
O1498      C1499   1.254       .  A
C1499      O1500   1.265       .  A
C1499      C2464   1.472       .  S
O1500     Cr1516   2.022       .  S
O1501     Cr1516   2.033       .  S
O1501      C1502   1.273       .  A
C1502      O1503   1.261       .  A
C1502      C4057   1.495       .  S
O1503     Cr1517   1.972       .  S
O1504     Cr1517   2.000       .  S
O1504      C1505   1.268       .  A
C1505      C3417   1.477       .  S
O1506     Cr1515   1.967       .  S
O1506      C1514   1.254       .  A
O1507     Cr1515   1.969       .  S
O1507      C1508   1.260       .  A
C1508      O1509   1.276       .  A
C1508      C4737   1.483       .  S
O1509     Cr1516   2.051       .  S
O1510     Cr1516   2.000       .  S
O1510      C1511   1.265       .  A
C1511      O1512   1.261       .  A
C1511      C2474   1.477       .  S
O1512     Cr1517   1.983       .  S
O1513     Cr1517   2.004       .  S
O1513      C1514   1.262       .  A
C1514      C3007   1.476       .  S
Cr1515     O1518   1.756       .  S
Cr1516     O1518   1.766       .  S
Cr1517     O1518   1.763       .  S
O1519     Cr1537   1.975       .  S
O1519      C1527   1.260   1_455  A
O1520     Cr1537   1.976       .  S
O1520      C1521   1.254       .  A
C1521      O1522   1.269       .  A
C1521      C2577   1.492       .  S
O1522     Cr1538   2.047       .  S
O1523     Cr1538   2.026       .  S
O1523      C1524   1.271       .  A
C1524      O1525   1.263       .  A
C1524      C4007   1.496       .  S
O1525     Cr1539   1.980       .  S
O1526     Cr1539   2.006   1_655  S
O1526      C1527   1.268       .  A
C1527      C2887   1.466       .  S
O1528     Cr1537   1.972       .  S
O1528      C1536   1.256       .  A
O1529     Cr1537   1.957       .  S
O1529      C1530   1.258       .  A
C1530      O1531   1.275       .  A
C1530      C2797   1.476       .  S
O1531     Cr1538   2.050       .  S
O1532     Cr1538   2.004       .  S
O1532      C1533   1.267       .  A
C1533      O1534   1.263       .  A
C1533      C2477   1.477       .  S
O1534     Cr1539   1.984       .  S
O1535     Cr1539   1.998       .  S
O1535      C1536   1.260       .  A
C1536      C4114   1.461       .  S
Cr1537     O1540   1.751       .  S
Cr1538     O1540   1.771       .  S
Cr1539     O1540   1.764       .  S
O1541     Cr1559   2.002       .  S
O1541      C1549   1.266       .  A
O1542     Cr1559   1.978       .  S
O1542      C1543   1.260       .  A
C1543      O1544   1.272       .  A
C1543      C2517   1.495       .  S
O1544     Cr1560   2.034       .  S
O1545     Cr1560   2.010       .  S
O1545      C1546   1.266       .  A
C1546      O1547   1.262       .  A
C1546      C3587   1.475       .  S
O1547     Cr1561   1.994       .  S
O1548     Cr1561   1.970       .  S
O1548      C1549   1.262       .  A
C1549      C2444   1.477       .  S
O1550     Cr1559   1.985       .  S
O1550      C1558   1.258       .  A
O1551     Cr1559   1.990       .  S
O1551      C1552   1.264       .  A
C1552      O1553   1.265       .  A
C1552      C2454   1.480       .  S
O1553     Cr1560   1.988       .  S
O1554     Cr1560   2.047       .  S
O1554      C1555   1.273       .  A
C1555      O1556   1.258       .  A
C1555      C2624   1.484       .  S
O1556     Cr1561   1.969       .  S
O1557     Cr1561   1.990       .  S
O1557      C1558   1.260       .  A
C1558      C4544   1.462       .  S
Cr1559     O1562   1.769       .  S
Cr1560     O1562   1.769       .  S
Cr1561     O1562   1.756       .  S
O1563     Cr1581   1.990   1_545  S
O1563      C1571   1.261       .  A
O1564     Cr1581   1.989       .  S
O1564      C1565   1.264       .  A
C1565      O1566   1.269       .  A
C1565      C2557   1.491       .  S
O1566     Cr1582   2.017       .  S
O1567     Cr1582   2.058   1_655  S
O1567      C1568   1.278       .  A
C1568      O1569   1.256       .  A
C1568      C3804   1.478       .  S
O1569     Cr1583   1.951   1_655  S
O1570     Cr1583   1.989       .  S
O1570      C1571   1.264   1_565  A
C1571      C2437   1.465       .  S
O1572     Cr1581   1.991       .  S
O1572      C1580   1.265       .  A
O1573     Cr1581   1.952       .  S
O1573      C1574   1.254       .  A
C1574      O1575   1.270       .  A
C1574      C2457   1.464       .  S
O1575     Cr1582   2.026       .  S
O1576     Cr1582   2.012       .  S
O1576      C1577   1.260       .  A
C1577      O1578   1.259       .  A
C1577      C3747   1.484       .  S
O1578     Cr1583   2.001       .  S
O1579     Cr1583   1.981       .  S
O1579      C1580   1.261       .  A
C1580      C2424   1.474       .  S
Cr1581     O1584   1.759       .  S
Cr1582     O1584   1.774       .  S
Cr1583     O1584   1.760       .  S
O1585     Cr1603   1.996       .  S
O1585      C1593   1.266       .  A
O1586     Cr1603   1.972       .  S
O1586      C1587   1.259       .  A
C1587      O1588   1.268       .  A
C1587      C3677   1.484       .  S
O1588     Cr1604   2.010       .  S
O1589     Cr1604   2.016       .  S
O1589      C1590   1.263       .  A
C1590      O1591   1.256       .  A
C1590      C3447   1.472       .  S
O1591     Cr1605   1.981       .  S
O1592     Cr1605   1.984       .  S
O1592      C1593   1.267       .  A
C1593      C2404   1.476       .  S
O1594     Cr1603   1.993       .  S
O1594      C1602   1.258       .  A
O1595     Cr1603   1.983       .  S
O1595      C1596   1.261       .  A
C1596      O1597   1.264       .  A
C1596      C2414   1.470       .  S
O1597     Cr1604   1.994       .  S
O1598     Cr1604   2.036       .  S
O1598      C1599   1.272       .  A
C1599      O1600   1.262       .  A
C1599      C2467   1.476       .  S
O1600     Cr1605   1.972       .  S
O1601     Cr1605   1.978       .  S
O1601      C1602   1.258       .  A
C1602      C4727   1.473       .  S
Cr1603     O1606   1.767       .  S
Cr1604     O1606   1.770       .  S
Cr1605     O1606   1.758       .  S
O1607     Cr1625   2.000   1_554  S
O1607      C1615   1.268   1_545  A
O1608     Cr1625   1.981       .  S
O1608      C1609   1.260       .  A
C1609      O1610   1.271       .  A
C1609      C3634   1.495       .  S
O1610     Cr1626   2.026       .  S
O1611     Cr1626   2.018   1_565  S
O1611      C1612   1.266       .  A
C1612      O1613   1.258       .  A
C1612      C3737   1.478       .  S
O1613     Cr1627   1.991   1_565  S
O1614     Cr1627   1.967   1_565  S
O1614      C1615   1.260   1_556  A
C1615      C2427   1.474       .  S
O1616     Cr1625   1.982       .  S
O1616      C1624   1.256       .  A
O1617     Cr1625   1.989       .  S
O1617      C1618   1.264       .  A
C1618      O1619   1.266       .  A
C1618      C2417   1.469       .  S
O1619     Cr1626   1.994       .  S
O1620     Cr1626   2.051       .  S
O1620      C1621   1.274       .  A
C1621      O1622   1.255       .  A
C1621      C3867   1.476       .  S
O1622     Cr1627   1.951       .  S
O1623     Cr1627   1.983       .  S
O1623      C1624   1.259       .  A
C1624      C2394   1.462       .  S
Cr1625     O1628   1.765       .  S
Cr1626     O1628   1.769       .  S
Cr1627     O1628   1.762       .  S
O1629     Cr1647   1.984       .  S
O1629      C1637   1.252       .  A
O1630     Cr1647   1.973       .  S
O1630      C1631   1.261       .  A
C1631      O1632   1.266       .  A
C1631      C2367   1.476       .  S
O1632     Cr1648   2.000       .  S
O1633     Cr1648   2.056       .  S
O1633      C1634   1.282       .  A
C1634      O1635   1.261       .  A
C1634      C2854   1.474       .  S
O1635     Cr1649   1.951       .  S
O1636     Cr1649   1.982       .  S
O1636      C1637   1.256       .  A
C1637      C2374   1.458       .  S
O1638     Cr1647   2.011       .  S
O1638      C1646   1.269       .  A
O1639     Cr1647   1.936       .  S
O1639      C1640   1.252       .  A
C1640      O1641   1.270       .  A
C1640      C2384   1.465       .  S
O1641     Cr1648   2.023       .  S
O1642     Cr1648   2.024       .  S
O1642      C1643   1.259       .  A
C1643      O1644   1.253       .  A
C1643      C2754   1.486       .  S
O1644     Cr1649   1.985       .  S
O1645     Cr1649   1.966       .  S
O1645      C1646   1.260       .  A
C1646      C4657   1.473       .  S
Cr1647     O1650   1.767       .  S
Cr1648     O1650   1.779       .  S
Cr1649     O1650   1.755       .  S
O1651     Cr1669   1.999   1_455  S
O1651      C1659   1.264       .  A
O1652     Cr1669   1.966       .  S
O1652      C1653   1.259       .  A
C1653      O1654   1.272       .  A
C1653      C2357   1.487       .  S
O1654     Cr1670   2.029       .  S
O1655     Cr1670   2.003   1_556  S
O1655      C1656   1.263       .  A
C1656      O1657   1.263       .  A
C1656      C3884   1.473       .  S
O1657     Cr1671   1.997   1_556  S
O1658     Cr1671   1.975   1_556  S
O1658      C1659   1.262   1_656  A
C1659      C2397   1.477   1_554  S
O1660     Cr1669   1.987       .  S
O1660      C1668   1.259       .  A
O1661     Cr1669   1.985       .  S
O1661      C1662   1.261       .  A
C1662      O1663   1.264       .  A
C1662      C2387   1.468       .  S
O1663     Cr1670   1.998       .  S
O1664     Cr1670   2.039       .  S
O1664      C1665   1.271       .  A
C1665      O1666   1.258       .  A
C1665      C3814   1.479       .  S
O1666     Cr1671   1.965       .  S
O1667     Cr1671   1.992       .  S
O1667      C1668   1.264       .  A
C1668      C2434   1.466   1_655  S
Cr1669     O1672   1.761       .  S
Cr1670     O1672   1.767       .  S
Cr1671     O1672   1.752       .  S
O1673     Cr1691   2.015   1_655  S
O1673      C1681   1.267       .  A
O1674     Cr1691   1.972   1_655  S
O1674      C1675   1.262   1_655  A
C1675      O1676   1.272       .  A
C1675      C2354   1.487       .  S
O1676     Cr1692   2.022       .  S
O1677     Cr1692   2.005   1_556  S
O1677      C1678   1.264       .  A
C1678      O1679   1.262       .  A
C1678      C3467   1.475       .  S
O1679     Cr1693   1.995   1_556  S
O1680     Cr1693   1.959   1_655  S
O1680      C1681   1.258       .  A
C1681      C4437   1.475       .  S
O1682     Cr1691   1.992       .  S
O1682      C1690   1.260       .  A
O1683     Cr1691   1.994       .  S
O1683      C1684   1.261       .  A
C1684      O1685   1.263       .  A
C1684      C2344   1.464       .  S
O1685     Cr1692   1.993       .  S
O1686     Cr1692   2.040       .  S
O1686      C1687   1.271       .  A
C1687      O1688   1.255       .  A
C1687      C2614   1.476       .  S
O1688     Cr1693   1.957       .  S
O1689     Cr1693   1.981       .  S
O1689      C1690   1.260       .  A
C1690      C3347   1.464       .  S
Cr1691     O1694   1.771       .  S
Cr1692     O1694   1.767       .  S
Cr1693     O1694   1.751       .  S
O1695     Cr1713   2.012       .  S
O1695      C1703   1.270       .  A
O1696     Cr1713   1.966       .  S
O1696      C1697   1.256       .  A
C1697      O1698   1.270       .  A
C1697      C2364   1.486       .  S
O1698     Cr1714   2.022       .  S
O1699     Cr1714   2.035       .  S
O1699      C1700   1.266       .  A
C1700      O1701   1.256       .  A
C1700      C2337   1.487       .  S
O1701     Cr1715   1.980       .  S
O1702     Cr1715   1.973       .  S
O1702      C1703   1.264       .  A
C1703      C2544   1.480       .  S
O1704     Cr1713   1.990       .  S
O1704      C1712   1.256       .  A
O1705     Cr1713   1.994       .  S
O1705      C1706   1.266       .  A
C1706      O1707   1.265       .  A
C1706      C2347   1.483       .  S
O1707     Cr1714   1.985       .  S
O1708     Cr1714   2.048       .  S
O1708      C1709   1.276       .  A
C1709      O1710   1.261       .  A
C1709      C2324   1.478       .  S
O1710     Cr1715   1.962       .  S
O1711     Cr1715   1.982       .  S
O1711      C1712   1.258       .  A
C1712      C3684   1.459       .  S
Cr1713     O1716   1.761       .  S
Cr1714     O1716   1.774       .  S
Cr1715     O1716   1.746       .  S
O1717     Cr1735   1.969       .  S
O1717      C1725   1.256       .  A
O1718     Cr1735   2.007       .  S
O1718      C1719   1.268       .  A
C1719      O1720   1.268       .  A
C1719      C3227   1.495       .  S
O1720     Cr1736   2.005       .  S
O1721     Cr1736   2.079       .  S
O1721      C1722   1.284       .  A
C1722      O1723   1.253       .  A
C1722      C4177   1.485       .  S
O1723     Cr1737   1.938       .  S
O1724     Cr1737   1.986       .  S
O1724      C1725   1.262       .  A
C1725      C2314   1.446       .  S
O1726     Cr1735   2.013       .  S
O1726      C1734   1.269       .  A
O1727     Cr1735   1.940       .  S
O1727      C1728   1.252       .  A
C1728      O1729   1.274       .  A
C1728      C2297   1.476       .  S
O1729     Cr1736   2.037       .  S
O1730     Cr1736   2.005       .  S
O1730      C1731   1.257       .  A
C1731      O1732   1.258       .  A
C1731      C3994   1.479       .  S
O1732     Cr1737   2.000       .  S
O1733     Cr1737   1.967       .  S
O1733      C1734   1.259       .  A
C1734      C2304   1.475       .  S
Cr1735     O1738   1.762       .  S
Cr1736     O1738   1.770       .  S
Cr1737     O1738   1.761       .  S
O1739     Cr1757   1.994       .  S
O1739      C1747   1.255       .  A
O1740     Cr1757   1.984       .  S
O1740      C1741   1.264       .  A
C1741      O1742   1.267       .  A
C1741      C3187   1.481       .  S
O1742     Cr1758   1.996       .  S
O1743     Cr1758   2.079       .  S
O1743      C1744   1.287       .  A
C1744      O1745   1.258       .  A
C1744      C4047   1.476       .  S
O1745     Cr1759   1.945       .  S
O1746     Cr1759   1.967       .  S
O1746      C1747   1.253       .  A
C1747      C2284   1.462       .  S
O1748     Cr1757   2.014       .  S
O1748      C1756   1.274       .  A
O1749     Cr1757   1.942       .  S
O1749      C1750   1.253       .  A
C1750      O1751   1.272       .  A
C1750      C2294   1.482       .  S
O1751     Cr1758   2.023       .  S
O1752     Cr1758   2.035       .  S
O1752      C1753   1.257       .  A
C1753      O1754   1.246       .  A
C1753      C2597   1.488       .  S
O1754     Cr1759   1.978       .  S
O1755     Cr1759   1.968       .  S
O1755      C1756   1.265       .  A
C1756      C4507   1.472       .  S
Cr1757     O1760   1.765       .  S
Cr1758     O1760   1.778       .  S
Cr1759     O1760   1.753       .  S
O1761     Cr1779   2.010       .  S
O1761      C1769   1.268       .  A
O1762     Cr1779   1.965       .  S
O1762      C1763   1.258       .  A
C1763      O1764   1.270       .  A
C1763      C3367   1.481       .  S
O1764     Cr1780   2.018       .  S
O1765     Cr1780   2.000       .  S
O1765      C1766   1.262       .  A
C1766      O1767   1.262       .  A
C1766      C2947   1.470       .  S
O1767     Cr1781   1.996       .  S
O1768     Cr1781   1.974       .  S
O1768      C1769   1.262       .  A
C1769      C4634   1.482       .  S
O1770     Cr1779   1.980       .  S
O1770      C1778   1.256       .  A
O1771     Cr1779   1.993       .  S
O1771      C1772   1.265       .  A
C1772      O1773   1.264       .  A
C1772      C2274   1.475       .  S
O1773     Cr1780   1.989       .  S
O1774     Cr1780   2.041       .  S
O1774      C1775   1.272       .  A
C1775      O1776   1.258       .  A
C1775      C2847   1.477       .  S
O1776     Cr1781   1.961       .  S
O1777     Cr1781   1.991       .  S
O1777      C1778   1.262       .  A
C1778      C2377   1.457       .  S
Cr1779     O1782   1.762       .  S
Cr1780     O1782   1.770       .  S
Cr1781     O1782   1.754       .  S
O1783     Cr1801   2.018       .  S
O1783      C1791   1.271       .  A
O1784     Cr1801   1.973       .  S
O1784      C1785   1.260       .  A
C1785      O1786   1.270       .  A
C1785      C3337   1.489       .  S
O1786     Cr1802   2.023       .  S
O1787     Cr1802   1.998   1_455  S
O1787      C1788   1.262       .  A
C1788      O1789   1.262       .  A
C1788      C2264   1.467       .  S
O1789     Cr1803   1.994   1_455  S
O1790     Cr1803   1.971   1_455  S
O1790      C1791   1.260   1_455  A
C1791      C4484   1.485   1_655  S
O1792     Cr1801   1.976       .  S
O1792      C1800   1.255       .  A
O1793     Cr1801   2.001       .  S
O1793      C1794   1.266       .  A
C1794      O1795   1.262       .  A
C1794      C2277   1.463       .  S
O1795     Cr1802   1.981       .  S
O1796     Cr1802   2.047       .  S
O1796      C1797   1.272       .  A
C1797      O1798   1.255       .  A
C1797      C4037   1.477       .  S
O1798     Cr1803   1.959       .  S
O1799     Cr1803   1.988       .  S
O1799      C1800   1.261       .  A
C1800      C2287   1.464       .  S
Cr1801     O1804   1.766       .  S
Cr1802     O1804   1.770       .  S
Cr1803     O1804   1.757       .  S
O1805     Cr1823   1.974       .  S
O1805      C1813   1.253       .  A
O1806     Cr1823   1.944       .  S
O1806      C1807   1.260       .  A
C1807      O1808   1.286       .  A
C1807      C2537   1.475       .  S
O1808     Cr1824   2.072       .  S
O1809     Cr1824   1.992       .  S
O1809      C1810   1.265       .  A
C1810      O1811   1.262       .  A
C1810      C2997   1.473       .  S
O1811     Cr1825   1.974       .  S
O1812     Cr1825   1.986       .  S
O1812      C1813   1.253       .  A
C1813      C2247   1.457       .  S
O1814     Cr1823   1.975       .  S
O1814      C1822   1.266       .  A
O1815     Cr1823   1.976       .  S
O1815      C1816   1.246       .  A
C1816      O1817   1.256       .  A
C1816      C2334   1.485       .  S
O1817     Cr1824   2.032       .  S
O1818     Cr1824   2.022       .  S
O1818      C1819   1.270       .  A
C1819      O1820   1.253       .  A
C1819      C2254   1.465       .  S
O1820     Cr1825   1.940       .  S
O1821     Cr1825   2.013       .  S
O1821      C1822   1.274       .  A
C1822      C2234   1.478       .  S
Cr1823     O1826   1.756       .  S
Cr1824     O1826   1.781       .  S
Cr1825     O1826   1.764       .  S
O1827     Cr1845   1.994       .  S
O1827      C1835   1.268       .  A
O1828     Cr1845   1.974       .  S
O1828      C1829   1.254       .  A
C1829      O1830   1.266       .  A
C1829      C4497   1.480       .  S
O1830     Cr1846   2.033       .  S
O1831     Cr1846   2.020       .  S
O1831      C1832   1.270       .  A
C1832      O1833   1.261       .  A
C1832      C2977   1.488       .  S
O1833     Cr1847   1.973       .  S
O1834     Cr1847   2.007       .  S
O1834      C1835   1.268       .  A
C1835      C2587   1.489       .  S
O1836     Cr1845   1.973       .  S
O1836      C1844   1.256       .  A
O1837     Cr1845   1.966       .  S
O1837      C1838   1.261       .  A
C1838      O1839   1.272       .  A
C1838      C2267   1.472       .  S
O1839     Cr1846   2.037       .  S
O1840     Cr1846   1.991       .  S
O1840      C1841   1.263       .  A
C1841      O1842   1.262       .  A
C1841      C2257   1.468       .  S
O1842     Cr1847   1.988       .  S
O1843     Cr1847   1.995       .  S
O1843      C1844   1.260       .  A
C1844      C4027   1.457       .  S
Cr1845     O1848   1.749       .  S
Cr1846     O1848   1.775       .  S
Cr1847     O1848   1.762       .  S
O1849     Cr1867   1.981       .  S
O1849      C1857   1.260       .  A
O1850     Cr1867   1.970       .  S
O1850      C1851   1.262       .  A
C1851      O1852   1.274       .  A
C1851      C2807   1.483       .  S
O1852     Cr1868   2.027       .  S
O1853     Cr1868   1.996       .  S
O1853      C1854   1.262       .  A
C1854      O1855   1.261       .  A
C1854      C3077   1.464       .  S
O1855     Cr1869   1.982       .  S
O1856     Cr1869   1.998       .  S
O1856      C1857   1.265       .  A
C1857      C4527   1.475       .  S
O1858     Cr1867   1.990       .  S
O1858      C1866   1.262       .  A
O1859     Cr1867   1.973       .  S
O1859      C1860   1.255       .  A
C1860      O1861   1.261       .  A
C1860      C2224   1.464       .  S
O1861     Cr1868   1.999       .  S
O1862     Cr1868   2.031       .  S
O1862      C1863   1.268       .  A
C1863      O1864   1.258       .  A
C1863      C3577   1.481       .  S
O1864     Cr1869   1.970       .  S
O1865     Cr1869   1.984       .  S
O1865      C1866   1.262       .  A
C1866      C2447   1.463       .  S
Cr1867     O1870   1.766       .  S
Cr1868     O1870   1.771       .  S
Cr1869     O1870   1.756       .  S
O1871     Cr1889   1.982       .  S
O1871      C1879   1.255       .  A
O1872     Cr1889   1.975       .  S
O1872      C1873   1.259       .  A
C1873      O1874   1.268       .  A
C1873      C2777   1.485       .  S
O1874     Cr1890   2.014       .  S
O1875     Cr1890   2.046       .  S
O1875      C1876   1.277   1_565  A
C1876      O1877   1.258       .  A
C1876      C2204   1.466       .  S
O1877     Cr1891   1.946   1_545  S
O1878     Cr1891   1.996       .  S
O1878      C1879   1.261       .  A
C1879      C4687   1.460       .  S
O1880     Cr1889   1.995       .  S
O1880      C1888   1.266       .  A
O1881     Cr1889   1.938       .  S
O1881      C1882   1.253       .  A
C1882      O1883   1.269       .  A
C1882      C2227   1.456       .  S
O1883     Cr1890   2.015       .  S
O1884     Cr1890   2.012       .  S
O1884      C1885   1.259       .  A
C1885      O1886   1.257       .  A
C1885      C4227   1.484       .  S
O1886     Cr1891   2.004       .  S
O1887     Cr1891   1.974       .  S
O1887      C1888   1.263       .  A
C1888      C2214   1.470       .  S
Cr1889     O1892   1.765       .  S
Cr1890     O1892   1.774       .  S
Cr1891     O1892   1.762       .  S
O1893     Cr1911   2.004       .  S
O1893      C1901   1.268       .  A
O1894     Cr1911   1.981       .  S
O1894      C1895   1.258       .  A
C1895      O1896   1.271       .  A
C1895      C3307   1.480       .  S
O1896     Cr1912   2.026       .  S
O1897     Cr1912   2.012       .  S
O1897      C1898   1.267       .  A
C1898      O1899   1.262       .  A
C1898      C3984   1.480       .  S
O1899     Cr1913   2.001       .  S
O1900     Cr1913   1.968       .  S
O1900      C1901   1.260       .  A
C1901      C2307   1.477       .  S
O1902     Cr1911   1.982       .  S
O1902      C1910   1.256       .  A
O1903     Cr1911   1.995       .  S
O1903      C1904   1.266       .  A
C1904      O1905   1.267       .  A
C1904      C2184   1.481       .  S
O1905     Cr1912   1.993       .  S
O1906     Cr1912   2.048       .  S
O1906      C1907   1.273       .  A
C1907      O1908   1.254       .  A
C1907      C4367   1.479       .  S
O1908     Cr1913   1.960       .  S
O1909     Cr1913   1.986       .  S
O1909      C1910   1.262       .  A
C1910      C2194   1.465       .  S
Cr1911     O1914   1.764       .  S
Cr1912     O1914   1.767       .  S
Cr1913     O1914   1.755       .  S
O1915     Cr1933   2.005       .  S
O1915      C1923   1.268       .  A
O1916     Cr1933   1.969       .  S
O1916      C1917   1.259       .  A
C1917      O1918   1.271       .  A
C1917      C3257   1.490       .  S
O1918     Cr1934   2.027       .  S
O1919     Cr1934   2.013       .  S
O1919      C1920   1.266       .  A
C1920      O1921   1.262       .  A
C1920      C2697   1.477       .  S
O1921     Cr1935   1.997       .  S
O1922     Cr1935   1.963       .  S
O1922      C1923   1.259       .  A
C1923      C2174   1.474       .  S
O1924     Cr1933   1.988       .  S
O1924      C1932   1.258       .  A
O1925     Cr1933   1.996       .  S
O1925      C1926   1.265       .  A
C1926      O1927   1.265       .  A
C1926      C2187   1.463       .  S
O1927     Cr1934   1.988       .  S
O1928     Cr1934   2.051       .  S
O1928      C1929   1.271       .  A
C1929      O1930   1.253       .  A
C1929      C2484   1.471       .  S
O1930     Cr1935   1.958       .  S
O1931     Cr1935   1.985       .  S
O1931      C1932   1.259       .  A
C1932      C4584   1.465       .  S
Cr1933     O1936   1.764       .  S
Cr1934     O1936   1.772       .  S
Cr1935     O1936   1.749       .  S
O1937     Cr1955   1.979       .  S
O1937      C1945   1.261       .  A
O1938     Cr1955   1.981       .  S
O1938      C1939   1.260       .  A
C1939      O1940   1.264       .  A
C1939      C3134   1.487       .  S
O1940     Cr1956   2.007       .  S
O1941     Cr1956   2.058       .  S
O1941      C1942   1.279       .  A
C1942      O1943   1.255       .  A
C1942      C4377   1.476       .  S
O1943     Cr1957   1.936       .  S
O1944     Cr1957   1.994       .  S
O1944      C1945   1.267       .  A
C1945      C2197   1.462       .  S
O1946     Cr1955   1.990       .  S
O1946      C1954   1.260       .  A
O1947     Cr1955   1.946       .  S
O1947      C1948   1.255       .  A
C1948      O1949   1.276       .  A
C1948      C2164   1.480       .  S
O1949     Cr1956   2.031       .  S
O1950     Cr1956   2.002       .  S
O1950      C1951   1.257       .  A
C1951      O1952   1.259       .  A
C1951      C4187   1.480       .  S
O1952     Cr1957   1.999       .  S
O1953     Cr1957   1.974       .  S
O1953      C1954   1.259       .  A
C1954      C2317   1.464       .  S
Cr1955     O1958   1.769       .  S
Cr1956     O1958   1.773       .  S
Cr1957     O1958   1.760       .  S
O1959     Cr1977   1.967       .  S
O1959      C1967   1.246       .  A
O1960     Cr1977   1.973       .  S
O1960      C1961   1.259       .  A
C1961      O1962   1.267       .  A
C1961      C2217   1.472       .  S
O1962     Cr1978   2.005       .  S
O1963     Cr1978   1.971       .  S
O1963      C1964   1.260       .  A
C1964      O1965   1.270       .  A
C1964      C3107   1.488       .  S
O1965     Cr1979   2.014       .  S
O1966     Cr1979   2.051       .  S
O1966      C1967   1.267       .  A
C1967      C4237   1.488       .  S
O1968     Cr1977   1.967       .  S
O1968      C1976   1.263       .  A
O1969     Cr1977   1.966       .  S
O1969      C1970   1.252       .  A
C1970      O1971   1.259       .  A
C1970      C4707   1.466       .  S
O1971     Cr1978   2.004       .  S
O1972     Cr1978   1.971       .  S
O1972      C1973   1.260       .  A
C1973      O1974   1.267       .  A
C1973      C2167   1.470       .  S
O1974     Cr1979   2.000       .  S
O1975     Cr1979   2.045       .  S
O1975      C1976   1.278       .  A
C1976      C2657   1.471       .  S
Cr1977     O1980   1.750       .  S
Cr1978     O1980   1.771       .  S
Cr1979     O1980   1.770       .  S
O1981     Cr1999   2.005       .  S
O1981      C1989   1.264       .  A
O1982     Cr1999   1.987       .  S
O1982      C1983   1.266       .  A
C1983      O1984   1.274       .  A
C1983      C3517   1.493       .  S
O1984     Cr2000   2.024       .  S
O1985     Cr2000   2.026       .  S
O1985      C1986   1.268       .  A
C1986      O1987   1.258       .  A
C1986      C3017   1.485       .  S
O1987     Cr2001   1.983       .  S
O1988     Cr2001   1.970       .  S
O1988      C1989   1.258       .  A
C1989      C4757   1.471       .  S
O1990     Cr1999   2.011       .  S
O1990      C1998   1.264       .  A
O1991     Cr1999   1.974       .  S
O1991      C1992   1.256       .  A
C1992      O1993   1.266       .  A
C1992      C2154   1.473       .  S
O1993     Cr2000   2.012       .  S
O1994     Cr2000   2.035       .  S
O1994      C1995   1.270       .  A
C1995      O1996   1.257       .  A
C1995      C3434   1.478       .  S
O1996     Cr2001   1.962       .  S
O1997     Cr2001   1.970       .  S
O1997      C1998   1.256       .  A
C1998      C2407   1.469       .  S
Cr1999     O2002   1.772       .  S
Cr2000     O2002   1.770       .  S
Cr2001     O2002   1.751       .  S
O2003     Cr2021   1.970       .  S
O2003      C2011   1.255       .  A
O2004     Cr2021   1.994       .  S
O2004      C2005   1.264       .  A
C2005      O2006   1.267       .  A
C2005      C3497   1.486       .  S
O2006     Cr2022   2.004       .  S
O2007     Cr2022   2.070   1_554  S
O2007      C2008   1.282       .  A
C2008      O2009   1.253       .  A
C2008      C2144   1.478       .  S
O2009     Cr2023   1.933   1_554  S
O2010     Cr2023   2.001       .  S
O2010      C2011   1.266       .  A
C2011      C4607   1.463       .  S
O2012     Cr2021   2.006       .  S
O2012      C2020   1.268       .  A
O2013     Cr2021   1.940       .  S
O2013      C2014   1.252       .  A
C2014      O2015   1.273       .  A
C2014      C2157   1.463       .  S
O2015     Cr2022   2.035       .  S
O2016     Cr2022   1.999       .  S
O2016      C2017   1.258       .  A
C2017      O2018   1.260       .  A
C2017      C2714   1.481       .  S
O2018     Cr2023   2.007       .  S
O2019     Cr2023   1.964       .  S
O2019      C2020   1.258       .  A
C2020      C2177   1.473       .  S
Cr2021     O2024   1.764       .  S
Cr2022     O2024   1.771       .  S
Cr2023     O2024   1.759       .  S
O2025     Cr2043   1.974       .  S
O2025      C2033   1.262       .  A
O2026     Cr2043   1.997       .  S
O2026      C2027   1.265       .  A
C2027      O2028   1.264       .  A
C2027      C2327   1.470       .  S
O2028     Cr2044   1.998       .  S
O2029     Cr2044   2.005       .  S
O2029      C2030   1.267       .  A
C2030      O2031   1.260       .  A
C2030      C3067   1.478       .  S
O2031     Cr2045   1.982       .  S
O2032     Cr2045   1.995       .  S
O2032      C2033   1.265       .  A
C2033      C2237   1.475       .  S
O2034     Cr2043   1.988       .  S
O2034      C2042   1.262       .  A
O2035     Cr2043   1.972       .  S
O2035      C2036   1.257       .  A
C2036      O2037   1.267       .  A
C2036      C3697   1.476       .  S
O2037     Cr2044   2.026       .  S
O2038     Cr2044   1.978       .  S
O2038      C2039   1.263       .  A
C2039      O2040   1.263       .  A
C2039      C2134   1.469       .  S
O2040     Cr2045   1.987       .  S
O2041     Cr2045   1.988       .  S
O2041      C2042   1.258       .  A
C2042      C2124   1.470       .  S
Cr2043     O2046   1.753       .  S
Cr2044     O2046   1.769       .  S
Cr2045     O2046   1.769       .  S
O2047     Cr2065   2.014       .  S
O2047      C2055   1.267       .  A
O2048     Cr2065   1.950       .  S
O2048      C2049   1.254       .  A
C2049      O2050   1.274       .  A
C2049      C4617   1.470       .  S
O2050     Cr2066   2.047       .  S
O2051     Cr2066   1.990       .  S
O2051      C2052   1.266       .  A
C2052      O2053   1.269       .  A
C2052      C3037   1.484       .  S
O2053     Cr2067   2.004       .  S
O2054     Cr2067   1.969       .  S
O2054      C2055   1.257       .  A
C2055      C2494   1.466       .  S
O2056     Cr2065   1.963       .  S
O2056      C2064   1.256       .  A
O2057     Cr2065   2.019       .  S
O2057      C2058   1.266       .  A
C2058      O2059   1.258       .  A
C2058      C2147   1.480       .  S
O2059     Cr2066   1.993       .  S
O2060     Cr2066   2.020       .  S
O2060      C2061   1.267       .  A
C2061      O2062   1.251       .  A
C2061      C2137   1.461       .  S
O2062     Cr2067   1.943       .  S
O2063     Cr2067   2.004       .  S
O2063      C2064   1.266       .  A
C2064      C2707   1.473       .  S
Cr2065     O2068   1.755       .  S
Cr2066     O2068   1.773       .  S
Cr2067     O2068   1.759       .  S
O2069     Cr2087   1.982       .  S
O2069      C2077   1.258       .  A
O2070     Cr2087   1.943       .  S
O2070      C2071   1.253       .  A
C2071      O2072   1.277       .  A
C2071      C3704   1.472       .  S
O2072     Cr2088   2.064       .  S
O2073     Cr2088   2.012       .  S
O2073      C2074   1.271       .  A
C2074      O2075   1.264       .  A
C2074      C2927   1.489       .  S
O2075     Cr2089   1.987       .  S
O2076     Cr2089   1.994       .  S
O2076      C2077   1.258       .  A
C2077      C2127   1.467       .  S
O2078     Cr2087   1.962       .  S
O2078      C2086   1.262       .  A
O2079     Cr2087   2.012       .  S
O2079      C2080   1.259       .  A
C2080      O2081   1.261       .  A
C2080      C2527   1.492       .  S
O2081     Cr2088   2.018       .  S
O2082     Cr2088   2.007       .  S
O2082      C2083   1.267       .  A
C2083      O2084   1.254       .  A
C2083      C2114   1.450       .  S
O2084     Cr2089   1.941       .  S
O2085     Cr2089   2.012       .  S
O2085      C2086   1.270       .  A
C2086      C2244   1.475       .  S
Cr2087     O2090   1.750       .  S
Cr2088     O2090   1.779       .  S
Cr2089     O2090   1.767       .  S
O2091     Cr2109   1.978       .  S
O2091      C2099   1.264       .  A
O2092     Cr2109   1.988       .  S
O2092      C2093   1.260       .  A
C2093      O2094   1.261       .  A
C2093      C4697   1.466       .  S
O2094     Cr2110   1.999       .  S
O2095     Cr2110   2.005       .  S
O2095      C2096   1.268       .  A
C2096      O2097   1.263       .  A
C2096      C2917   1.478       .  S
O2097     Cr2111   1.972       .  S
O2098     Cr2111   1.989       .  S
O2098      C2099   1.263       .  A
C2099      C2647   1.472       .  S
O2100     Cr2109   1.980       .  S
O2100      C2108   1.260       .  A
O2101     Cr2109   1.968       .  S
O2101      C2102   1.258       .  A
C2102      O2103   1.268       .  A
C2102      C2207   1.474       .  S
O2103     Cr2110   2.021       .  S
O2104     Cr2110   1.989       .  S
O2104      C2105   1.261       .  A
C2105      O2106   1.258       .  A
C2105      C2117   1.459       .  S
O2106     Cr2111   1.973       .  S
O2107     Cr2111   1.996       .  S
O2107      C2108   1.261       .  A
C2108      C4217   1.466       .  S
Cr2109     O2112   1.752       .  S
Cr2110     O2112   1.765       .  S
Cr2111     O2112   1.765       .  S
C2113      C2114   1.397       .  A
C2113      C2118   1.386       .  A
C2113      H2120   1.084       .  S
C2114      C2115   1.403       .  A
C2115      C2116   1.398       .  A
C2115      F2122   1.357       .  S
C2116      C2117   1.403       .  A
C2116      H2121   1.084       .  S
C2117      C2118   1.405       .  A
C2118      F2119   1.358       .  S
C2123      C2124   1.406       .  A
C2123      C2128   1.406       .  A
C2123      H2130   1.083       .  S
C2124      C2125   1.404       .  A
C2125      C2126   1.388       .  A
C2125      F2132   1.358       .  S
C2126      C2127   1.401       .  A
C2126      H2131   1.085       .  S
C2127      C2128   1.406       .  A
C2128      F2129   1.357       .  S
C2133      C2134   1.400       .  A
C2133      C2138   1.391       .  A
C2133      H2140   1.083       .  S
C2134      C2135   1.412       .  A
C2135      C2136   1.394       .  A
C2135      F2142   1.358       .  S
C2136      C2137   1.397       .  A
C2136      H2141   1.084       .  S
C2137      C2138   1.407       .  A
C2138      F2139   1.358       .  S
C2143      C2144   1.409       .  A
C2143      C2148   1.399       .  A
C2143      H2150   1.084       .  S
C2144      C2145   1.407       .  A
C2145      C2146   1.407       .  A
C2145      F2152   1.357       .  S
C2146      C2147   1.407       .  A
C2146      H2151   1.084       .  S
C2147      C2148   1.401       .  A
C2148      F2149   1.357       .  S
C2153      C2154   1.404       .  A
C2153      C2158   1.391       .  A
C2153      H2160   1.084       .  S
C2154      C2155   1.407       .  A
C2155      C2156   1.405       .  A
C2155      F2162   1.356       .  S
C2156      C2157   1.404       .  A
C2156      H2161   1.083       .  S
C2157      C2158   1.402       .  A
C2158      F2159   1.358       .  S
C2163      C2164   1.399       .  A
C2163      C2168   1.395       .  A
C2163      H2170   1.083       .  S
C2164      C2165   1.417       .  A
C2165      C2166   1.398       .  A
C2165      F2172   1.358       .  S
C2166      C2167   1.396       .  A
C2166      H2171   1.084       .  S
C2167      C2168   1.410       .  A
C2168      F2169   1.357       .  S
C2173      C2174   1.406       .  A
C2173      C2178   1.393       .  A
C2173      H2180   1.084       .  S
C2174      C2175   1.407       .  A
C2175      C2176   1.392       .  A
C2175      F2182   1.358       .  S
C2176      C2177   1.404       .  A
C2176      H2181   1.083       .  S
C2177      C2178   1.408       .  A
C2178      F2179   1.358       .  S
C2183      C2184   1.405       .  A
C2183      C2188   1.400       .  A
C2183      H2190   1.083       .  S
C2184      C2185   1.414       .  A
C2185      C2186   1.396       .  A
C2185      F2192   1.358       .  S
C2186      C2187   1.396       .  A
C2186      H2191   1.084       .  S
C2187      C2188   1.405       .  A
C2188      F2189   1.358       .  S
C2193      C2194   1.401       .  A
C2193      C2198   1.389       .  A
C2193      H2200   1.084       .  S
C2194      C2195   1.405       .  A
C2195      C2196   1.401       .  A
C2195      F2202   1.357       .  S
C2196      C2197   1.404       .  A
C2196      H2201   1.084       .  S
C2197      C2198   1.403       .  A
C2198      F2199   1.358       .  S
C2203      C2204   1.406       .  A
C2203      C2208   1.400       .  A
C2203      H2210   1.084       .  S
C2204      C2205   1.403       .  A
C2205      C2206   1.397       .  A
C2205      F2212   1.357       .  S
C2206      C2207   1.405       .  A
C2206      H2211   1.084       .  S
C2207      C2208   1.404       .  A
C2208      F2209   1.357       .  S
C2213      C2214   1.406       .  A
C2213      C2218   1.390       .  A
C2213      H2220   1.083       .  S
C2214      C2215   1.405       .  A
C2215      C2216   1.393       .  A
C2215      F2222   1.358       .  S
C2216      C2217   1.406       .  A
C2216      H2221   1.080       .  S
C2217      C2218   1.405       .  A
C2218      F2219   1.358       .  S
C2223      C2224   1.404       .  A
C2223      C2228   1.401       .  A
C2223      H2230   1.084       .  S
C2224      C2225   1.406       .  A
C2225      C2226   1.387       .  A
C2225      F2232   1.358       .  S
C2226      C2227   1.398       .  A
C2226      H2231   1.084       .  S
C2227      C2228   1.404       .  A
C2228      F2229   1.357       .  S
C2233      C2234   1.404       .  A
C2233      C2238   1.392       .  A
C2233      H2240   1.083       .  S
C2234      C2235   1.408       .  A
C2235      C2236   1.396       .  A
C2235      F2242   1.354       .  S
C2236      C2237   1.404       .  A
C2236      H2241   1.084       .  S
C2237      C2238   1.409       .  A
C2238      F2239   1.358       .  S
C2243      C2244   1.404       .  A
C2243      C2248   1.389       .  A
C2243      H2250   1.084       .  S
C2244      C2245   1.411       .  A
C2245      C2246   1.397       .  A
C2245      F2252   1.357       .  S
C2246      C2247   1.399       .  A
C2246      H2251   1.084       .  S
C2247      C2248   1.402       .  A
C2248      F2249   1.358       .  S
C2253      C2254   1.403       .  A
C2253      C2258   1.391       .  A
C2253      H2260   1.084       .  S
C2254      C2255   1.403       .  A
C2255      C2256   1.403       .  A
C2255      F2262   1.357       .  S
C2256      C2257   1.407       .  A
C2256      H2261   1.084       .  S
C2257      C2258   1.402       .  A
C2258      F2259   1.358       .  S
C2263      C2264   1.405       .  A
C2263      C2268   1.403       .  A
C2263      H2270   1.084       .  S
C2264      C2265   1.403       .  A
C2265      C2266   1.394       .  A
C2265      F2272   1.358       .  S
C2266      C2267   1.403       .  A
C2266      H2271   1.084       .  S
C2267      C2268   1.406       .  A
C2268      F2269   1.358       .  S
C2273      C2274   1.408       .  A
C2273      C2278   1.396       .  A
C2273      H2280   1.084       .  S
C2274      C2275   1.405       .  A
C2275      C2276   1.400       .  A
C2275      F2282   1.357       .  S
C2276      C2277   1.404       .  A
C2276      H2281   1.084       .  S
C2277      C2278   1.398       .  A
C2278      F2279   1.357       .  S
C2283      C2284   1.402       .  A
C2283      C2288   1.386       .  A
C2283      H2290   1.084       .  S
C2284      C2285   1.404       .  A
C2285      C2286   1.402       .  A
C2285      F2292   1.357       .  S
C2286      C2287   1.405       .  A
C2286      H2291   1.083       .  S
C2287      C2288   1.403       .  A
C2288      F2289   1.358       .  S
C2293      C2294   1.414       .  A
C2293      C2298   1.397       .  A
C2293      H2300   1.083       .  S
C2294      C2295   1.403       .  A
C2295      C2296   1.397       .  A
C2295      F2302   1.357       .  S
C2296      C2297   1.411       .  A
C2296      H2301   1.084       .  S
C2297      C2298   1.399       .  A
C2298      F2299   1.357       .  S
C2303      C2304   1.405       .  A
C2303      C2308   1.395       .  A
C2303      H2310   1.084       .  S
C2304      C2305   1.406       .  A
C2305      C2306   1.394       .  A
C2305      F2312   1.358       .  S
C2306      C2307   1.405       .  A
C2306      H2311   1.083       .  S
C2307      C2308   1.409       .  A
C2308      F2309   1.358       .  S
C2313      C2314   1.397       .  A
C2313      C2318   1.390       .  A
C2313      H2320   1.084       .  S
C2314      C2315   1.400       .  A
C2315      C2316   1.393       .  A
C2315      F2322   1.358       .  S
C2316      C2317   1.403       .  A
C2316      H2321   1.084       .  S
C2317      C2318   1.408       .  A
C2318      F2319   1.358       .  S
C2323      C2324   1.405       .  A
C2323      C2328   1.395       .  A
C2323      H2330   1.084       .  S
C2324      C2325   1.407       .  A
C2325      C2326   1.404       .  A
C2325      F2332   1.357       .  S
C2326      C2327   1.405       .  A
C2326      H2331   1.084       .  S
C2327      C2328   1.403       .  A
C2328      F2329   1.358       .  S
C2333      C2334   1.413       .  A
C2333      C2338   1.420       .  A
C2333      H2340   1.083       .  S
C2334      C2335   1.405       .  A
C2335      C2336   1.375       .  A
C2335      F2342   1.359       .  S
C2336      C2337   1.401       .  A
C2336      H2341   1.083       .  S
C2337      C2338   1.411       .  A
C2338      F2339   1.356       .  S
C2343      C2344   1.402       .  A
C2343      C2348   1.400       .  A
C2343      H2350   1.084       .  S
C2344      C2345   1.400       .  A
C2345      C2346   1.395       .  A
C2345      F2352   1.358       .  S
C2346      C2347   1.409       .  A
C2346      H2351   1.083       .  S
C2347      C2348   1.410       .  A
C2348      F2349   1.357       .  S
C2353      C2354   1.408   1_655  A
C2353      C2358   1.400       .  A
C2353      H2360   1.083       .  S
C2354      C2355   1.408       .  A
C2355      C2356   1.397       .  A
C2355      F2362   1.357       .  S
C2356      C2357   1.408   1_455  A
C2356      H2361   1.083       .  S
C2357      C2358   1.408       .  A
C2358      F2359   1.357       .  S
C2363      C2364   1.403       .  A
C2363      C2368   1.395   1_455  A
C2363      H2370   1.083       .  S
C2364      C2365   1.415       .  A
C2365      C2366   1.402   1_455  A
C2365      F2372   1.358       .  S
C2366      C2367   1.401       .  A
C2366      H2371   1.083       .  S
C2367      C2368   1.408       .  A
C2368      F2369   1.358       .  S
C2373      C2374   1.400       .  A
C2373      C2378   1.385       .  A
C2373      H2380   1.085       .  S
C2374      C2375   1.404       .  A
C2375      C2376   1.403       .  A
C2375      F2382   1.357       .  S
C2376      C2377   1.404       .  A
C2376      H2381   1.084       .  S
C2377      C2378   1.400       .  A
C2378      F2379   1.359       .  S
C2383      C2384   1.404       .  A
C2383      C2388   1.404       .  A
C2383      H2390   1.083       .  S
C2384      C2385   1.405       .  A
C2385      C2386   1.389       .  A
C2385      F2392   1.358       .  S
C2386      C2387   1.400       .  A
C2386      H2391   1.084       .  S
C2387      C2388   1.408       .  A
C2388      F2389   1.357       .  S
C2393      C2394   1.398       .  A
C2393      C2398   1.397   1_556  A
C2393      H2400   1.084   1_556  S
C2394      C2395   1.404       .  A
C2395      C2396   1.392       .  A
C2395      F2402   1.358       .  S
C2396      C2397   1.404       .  A
C2396      H2401   1.084       .  S
C2397      C2398   1.414   1_556  A
C2398      F2399   1.358       .  S
C2403      C2404   1.398       .  A
C2403      C2408   1.390       .  A
C2403      H2410   1.084       .  S
C2404      C2405   1.414       .  A
C2405      C2406   1.401       .  A
C2405      F2412   1.357       .  S
C2406      C2407   1.399       .  A
C2406      H2411   1.083       .  S
C2407      C2408   1.410       .  A
C2408      F2409   1.355       .  S
C2413      C2414   1.408       .  A
C2413      C2418   1.399       .  A
C2413      H2420   1.084       .  S
C2414      C2415   1.400       .  A
C2415      C2416   1.398       .  A
C2415      F2422   1.357       .  S
C2416      C2417   1.407       .  A
C2416      H2421   1.083       .  S
C2417      C2418   1.400       .  A
C2418      F2419   1.357       .  S
C2423      C2424   1.405       .  A
C2423      C2428   1.388       .  A
C2423      H2430   1.083   1_565  S
C2424      C2425   1.406       .  A
C2425      C2426   1.398       .  A
C2425      F2432   1.357       .  S
C2426      C2427   1.407       .  A
C2426      H2431   1.083       .  S
C2427      C2428   1.407       .  A
C2428      F2429   1.358   1_565  S
C2433      C2434   1.398       .  A
C2433      C2438   1.384       .  A
C2433      H2440   1.085       .  S
C2434      C2435   1.408   1_455  A
C2435      C2436   1.407       .  A
C2435      F2442   1.357       .  S
C2436      C2437   1.404   1_655  A
C2436      H2441   1.083       .  S
C2437      C2438   1.404       .  A
C2438      F2439   1.358       .  S
C2443      C2444   1.403       .  A
C2443      C2448   1.389       .  A
C2443      H2450   1.084       .  S
C2444      C2445   1.413       .  A
C2445      C2446   1.400       .  A
C2445      F2452   1.357       .  S
C2446      C2447   1.399       .  A
C2446      H2451   1.084       .  S
C2447      C2448   1.404       .  A
C2448      F2449   1.357       .  S
C2453      C2454   1.411       .  A
C2453      C2458   1.396       .  A
C2453      H2460   1.083       .  S
C2454      C2455   1.407       .  A
C2455      C2456   1.397       .  A
C2455      F2462   1.357       .  S
C2456      C2457   1.404       .  A
C2456      H2461   1.084       .  S
C2457      C2458   1.399       .  A
C2458      F2459   1.358       .  S
C2463      C2464   1.407       .  A
C2463      C2468   1.406       .  A
C2463      H2470   1.084       .  S
C2464      C2465   1.405       .  A
C2465      C2466   1.398       .  A
C2465      F2472   1.358       .  S
C2466      C2467   1.403       .  A
C2466      H2471   1.084       .  S
C2467      C2468   1.405       .  A
C2468      F2469   1.358       .  S
C2473      C2474   1.406       .  A
C2473      C2478   1.405       .  A
C2473      H2480   1.083       .  S
C2474      C2475   1.407       .  A
C2475      C2476   1.391       .  A
C2475      F2482   1.358       .  S
C2476      C2477   1.403       .  A
C2476      H2481   1.084       .  S
C2477      C2478   1.408       .  A
C2478      F2479   1.357       .  S
C2483      C2484   1.394       .  A
C2483      C2488   1.381       .  A
C2483      H2490   1.085       .  S
C2484      C2485   1.410       .  A
C2485      C2486   1.417       .  A
C2485      F2492   1.356       .  S
C2486      C2487   1.410       .  A
C2486      H2491   1.083       .  S
C2487      C2488   1.410       .  A
C2488      F2489   1.355       .  S
C2493      C2494   1.400       .  A
C2493      C2498   1.398       .  A
C2493      H2500   1.084       .  S
C2494      C2495   1.406       .  A
C2495      C2496   1.399       .  A
C2495      F2502   1.358       .  S
C2496      C2497   1.401       .  A
C2496      H2501   1.084       .  S
C2497      C2498   1.406       .  A
C2498      F2499   1.357       .  S
C2503      C2504   1.404       .  A
C2503      C2508   1.404       .  A
C2503      H2510   1.083       .  S
C2504      C2505   1.404       .  A
C2505      C2506   1.391       .  A
C2505      F2512   1.358       .  S
C2506      C2507   1.405       .  A
C2506      H2511   1.083       .  S
C2507      C2508   1.411       .  A
C2508      F2509   1.357       .  S
C2513      C2514   1.407   1_565  A
C2513      C2518   1.405       .  A
C2513      H2520   1.083       .  S
C2514      C2515   1.414       .  A
C2515      C2516   1.403   1_545  A
C2515      F2522   1.357       .  S
C2516      C2517   1.405       .  A
C2516      H2521   1.083       .  S
C2517      C2518   1.412       .  A
C2518      F2519   1.357       .  S
C2523      C2524   1.408       .  A
C2523      C2528   1.407       .  A
C2523      H2530   1.084       .  S
C2524      C2525   1.409       .  A
C2525      C2526   1.409       .  A
C2525      F2532   1.357       .  S
C2526      C2527   1.407       .  A
C2526      H2531   1.083       .  S
C2527      C2528   1.407       .  A
C2528      F2529   1.358       .  S
C2533      C2534   1.407       .  A
C2533      C2538   1.401       .  A
C2533      H2540   1.084       .  S
C2534      C2535   1.403       .  A
C2535      C2536   1.402       .  A
C2535      F2542   1.357       .  S
C2536      C2537   1.410       .  A
C2536      H2541   1.084       .  S
C2537      C2538   1.404       .  A
C2538      F2539   1.358       .  S
C2543      C2544   1.410       .  A
C2543      C2548   1.402       .  A
C2543      H2550   1.083       .  S
C2544      C2545   1.407       .  A
C2545      C2546   1.388       .  A
C2545      F2552   1.354       .  S
C2546      C2547   1.401       .  A
C2546      H2551   1.084       .  S
C2547      C2548   1.402       .  A
C2548      F2549   1.357       .  S
C2553      C2554   1.412       .  A
C2553      C2558   1.416   1_455  A
C2553      H2560   1.083   1_455  S
C2554      C2555   1.406       .  A
C2555      C2556   1.391       .  A
C2555      F2562   1.358       .  S
C2556      C2557   1.405       .  A
C2556      H2561   1.084       .  S
C2557      C2558   1.410   1_455  A
C2558      F2559   1.357       .  S
C2563      C2564   1.401       .  A
C2563      C2568   1.401       .  A
C2563      H2570   1.083       .  S
C2564      C2565   1.416       .  A
C2565      C2566   1.400       .  A
C2565      F2572   1.358       .  S
C2566      C2567   1.399       .  A
C2566      H2571   1.083       .  S
C2567      C2568   1.414       .  A
C2568      F2569   1.358       .  S
C2573      C2574   1.415       .  A
C2573      C2578   1.422       .  A
C2573      H2580   1.083       .  S
C2574      C2575   1.407       .  A
C2575      C2576   1.378       .  A
C2575      F2582   1.359       .  S
C2576      C2577   1.403       .  A
C2576      H2581   1.082       .  S
C2577      C2578   1.411       .  A
C2578      F2579   1.356       .  S
C2583      C2584   1.404       .  A
C2583      C2588   1.396       .  A
C2583      H2590   1.084       .  S
C2584      C2585   1.400       .  A
C2585      C2586   1.403       .  A
C2585      F2592   1.357       .  S
C2586      C2587   1.413       .  A
C2586      H2591   1.083       .  S
C2587      C2588   1.406       .  A
C2588      F2589   1.354       .  S
C2593      C2594   1.401       .  A
C2593      C2598   1.375       .  A
C2593      H2600   1.082       .  S
C2594      C2595   1.410       .  A
C2595      C2596   1.421       .  A
C2595      F2602   1.356       .  S
C2596      C2597   1.414       .  A
C2596      H2601   1.083       .  S
C2597      C2598   1.406       .  A
C2598      F2599   1.359       .  S
C2603      C2604   1.410       .  A
C2603      C2608   1.390       .  A
C2603      H2610   1.083       .  S
C2604      C2605   1.405       .  A
C2605      C2606   1.399       .  A
C2605      F2612   1.357       .  S
C2606      C2607   1.404       .  A
C2606      H2611   1.084       .  S
C2607      C2608   1.395       .  A
C2608      F2609   1.358       .  S
C2613      C2614   1.404       .  A
C2613      C2618   1.405       .  A
C2613      H2620   1.084       .  S
C2614      C2615   1.408       .  A
C2615      C2616   1.397       .  A
C2615      F2622   1.358       .  S
C2616      C2617   1.401       .  A
C2616      H2621   1.084       .  S
C2617      C2618   1.408       .  A
C2618      F2619   1.357       .  S
C2623      C2624   1.405       .  A
C2623      C2628   1.400       .  A
C2623      H2630   1.084       .  S
C2624      C2625   1.408       .  A
C2625      C2626   1.408       .  A
C2625      F2632   1.357       .  S
C2626      C2627   1.407       .  A
C2626      H2631   1.084       .  S
C2627      C2628   1.405       .  A
C2628      F2629   1.358       .  S
C2633      C2634   1.408       .  A
C2633      C2638   1.405       .  A
C2633      H2640   1.083       .  S
C2634      C2635   1.409       .  A
C2635      C2636   1.388       .  A
C2635      F2642   1.358       .  S
C2636      C2637   1.401       .  A
C2636      H2641   1.084       .  S
C2637      C2638   1.407       .  A
C2638      F2639   1.357       .  S
C2643      C2644   1.397       .  A
C2643      C2648   1.397       .  A
C2643      H2650   1.084       .  S
C2644      C2645   1.404       .  A
C2645      C2646   1.387       .  A
C2645      F2652   1.355       .  S
C2646      C2647   1.400       .  A
C2646      H2651   1.084       .  S
C2647      C2648   1.414       .  A
C2648      F2649   1.358       .  S
C2653      C2654   1.405       .  A
C2653      C2658   1.398       .  A
C2653      H2660   1.074       .  S
C2654      C2655   1.404       .  A
C2655      C2656   1.405       .  A
C2655      F2662   1.357       .  S
C2656      C2657   1.405       .  A
C2656      H2661   1.080       .  S
C2657      C2658   1.403       .  A
C2658      F2659   1.359       .  S
C2663      C2664   1.412       .  A
C2663      C2668   1.396       .  A
C2663      H2670   1.083       .  S
C2664      C2665   1.409       .  A
C2665      C2666   1.404       .  A
C2665      F2672   1.357       .  S
C2666      C2667   1.405       .  A
C2666      H2671   1.084       .  S
C2667      C2668   1.398       .  A
C2668      F2669   1.358       .  S
C2673      C2674   1.410   1_554  A
C2673      C2678   1.402       .  A
C2673      H2680   1.083       .  S
C2674      C2675   1.408       .  A
C2675      C2676   1.401       .  A
C2675      F2682   1.357       .  S
C2676      C2677   1.410   1_556  A
C2676      H2681   1.083       .  S
C2677      C2678   1.408       .  A
C2678      F2679   1.357       .  S
C2683      C2684   1.398       .  A
C2683      C2688   1.393       .  A
C2683      H2690   1.084       .  S
C2684      C2685   1.401   1_556  A
C2685      C2686   1.397       .  A
C2685      F2692   1.357       .  S
C2686      C2687   1.406       .  A
C2686      H2691   1.084       .  S
C2687      C2688   1.407   1_554  A
C2688      F2689   1.355       .  S
C2693      C2694   1.405       .  A
C2693      C2698   1.398       .  A
C2693      H2700   1.084       .  S
C2694      C2695   1.407       .  A
C2695      C2696   1.408       .  A
C2695      F2702   1.357       .  S
C2696      C2697   1.407       .  A
C2696      H2701   1.084       .  S
C2697      C2698   1.404       .  A
C2698      F2699   1.358       .  S
C2703      C2704   1.405       .  A
C2703      C2708   1.393       .  A
C2703      H2710   1.084       .  S
C2704      C2705   1.408       .  A
C2705      C2706   1.392       .  A
C2705      F2712   1.358       .  S
C2706      C2707   1.403       .  A
C2706      H2711   1.083       .  S
C2707      C2708   1.409       .  A
C2708      F2709   1.358       .  S
C2713      C2714   1.406       .  A
C2713      C2718   1.404       .  A
C2713      H2720   1.084       .  S
C2714      C2715   1.405       .  A
C2715      C2716   1.402       .  A
C2715      F2722   1.357   1_556  S
C2716      C2717   1.405       .  A
C2716      H2721   1.084       .  S
C2717      C2718   1.405       .  A
C2718      F2719   1.357       .  S
C2723      C2724   1.403       .  A
C2723      C2728   1.394   1_556  A
C2723      H2730   1.084       .  S
C2724      C2725   1.402       .  A
C2725      C2726   1.401   1_556  A
C2725      F2732   1.357       .  S
C2726      C2727   1.411       .  A
C2726      H2731   1.083       .  S
C2727      C2728   1.408       .  A
C2728      F2729   1.358       .  S
C2733      C2734   1.403       .  A
C2733      C2738   1.403       .  A
C2733      H2740   1.084       .  S
C2734      C2735   1.401       .  A
C2735      C2736   1.395       .  A
C2735      F2742   1.358       .  S
C2736      C2737   1.407       .  A
C2736      H2741   1.083       .  S
C2737      C2738   1.410       .  A
C2738      F2739   1.357       .  S
C2743      C2744   1.404       .  A
C2743      C2748   1.397       .  A
C2743      H2750   1.084       .  S
C2744      C2745   1.407       .  A
C2745      C2746   1.391       .  A
C2745      F2752   1.358       .  S
C2746      C2747   1.404       .  A
C2746      H2751   1.083       .  S
C2747      C2748   1.407       .  A
C2748      F2749   1.354       .  S
C2753      C2754   1.411       .  A
C2753      C2758   1.418       .  A
C2753      H2760   1.083       .  S
C2754      C2755   1.405       .  A
C2755      C2756   1.382       .  A
C2755      F2762   1.355       .  S
C2756      C2757   1.399       .  A
C2756      H2761   1.084       .  S
C2757      C2758   1.410       .  A
C2758      F2759   1.356       .  S
C2763      C2764   1.407       .  A
C2763      C2768   1.392       .  A
C2763      H2770   1.084       .  S
C2764      C2765   1.407       .  A
C2765      C2766   1.400       .  A
C2765      F2772   1.357       .  S
C2766      C2767   1.403       .  A
C2766      H2771   1.084       .  S
C2767      C2768   1.399       .  A
C2768      F2769   1.358       .  S
C2773      C2774   1.404       .  A
C2773      C2778   1.400       .  A
C2773      H2780   1.083       .  S
C2774      C2775   1.417       .  A
C2775      C2776   1.406       .  A
C2775      F2782   1.357       .  S
C2776      C2777   1.402       .  A
C2776      H2781   1.083       .  S
C2777      C2778   1.410       .  A
C2778      F2779   1.358       .  S
C2783      C2784   1.403       .  A
C2783      C2788   1.394       .  A
C2783      H2790   1.083       .  S
C2784      C2785   1.411   1_565  A
C2785      C2786   1.397       .  A
C2785      F2792   1.358       .  S
C2786      C2787   1.404       .  A
C2786      H2791   1.083       .  S
C2787      C2788   1.409   1_545  A
C2788      F2789   1.358       .  S
C2793      C2794   1.401       .  A
C2793      C2798   1.396       .  A
C2793      H2800   1.084       .  S
C2794      C2795   1.408       .  A
C2795      C2796   1.405       .  A
C2795      F2802   1.358       .  S
C2796      C2797   1.404       .  A
C2796      H2801   1.083       .  S
C2797      C2798   1.408       .  A
C2798      F2799   1.358       .  S
C2803      C2804   1.404       .  A
C2803      C2808   1.396       .  A
C2803      H2810   1.084       .  S
C2804      C2805   1.405       .  A
C2805      C2806   1.401       .  A
C2805      F2812   1.357       .  S
C2806      C2807   1.409       .  A
C2806      H2811   1.083       .  S
C2807      C2808   1.408       .  A
C2808      F2809   1.357       .  S
C2813      C2814   1.401       .  A
C2813      C2818   1.401       .  A
C2813      H2820   1.084       .  S
C2814      C2815   1.406       .  A
C2815      C2816   1.396       .  A
C2815      F2822   1.358       .  S
C2816      C2817   1.405       .  A
C2816      H2821   1.083       .  S
C2817      C2818   1.413       .  A
C2818      F2819   1.357       .  S
C2823      C2824   1.406       .  A
C2823      C2828   1.399       .  A
C2823      H2830   1.084       .  S
C2824      C2825   1.406       .  A
C2825      C2826   1.399       .  A
C2825      F2832   1.358       .  S
C2826      C2827   1.405       .  A
C2826      H2831   1.084       .  S
C2827      C2828   1.405       .  A
C2828      F2829   1.357       .  S
C2833      C2834   1.406       .  A
C2833      C2838   1.399       .  A
C2833      H2840   1.083       .  S
C2834      C2835   1.411       .  A
C2835      C2836   1.399       .  A
C2835      F2842   1.358       .  S
C2836      C2837   1.406       .  A
C2836      H2841   1.083       .  S
C2837      C2838   1.411       .  A
C2838      F2839   1.357       .  S
C2843      C2844   1.401       .  A
C2843      C2848   1.396       .  A
C2843      H2850   1.084       .  S
C2844      C2845   1.407       .  A
C2845      C2846   1.406       .  A
C2845      F2852   1.357       .  S
C2846      C2847   1.405       .  A
C2846      H2851   1.083       .  S
C2847      C2848   1.407       .  A
C2848      F2849   1.358       .  S
C2853      C2854   1.402       .  A
C2853      C2858   1.400       .  A
C2853      H2860   1.084       .  S
C2854      C2855   1.409       .  A
C2855      C2856   1.401       .  A
C2855      F2862   1.358       .  S
C2856      C2857   1.401       .  A
C2856      H2861   1.084       .  S
C2857      C2858   1.409       .  A
C2858      F2859   1.358       .  S
C2863      C2864   1.400       .  A
C2863      C2868   1.389       .  A
C2863      H2870   1.084       .  S
C2864      C2865   1.405       .  A
C2865      C2866   1.403       .  A
C2865      F2872   1.357       .  S
C2866      C2867   1.404       .  A
C2866      H2871   1.083       .  S
C2867      C2868   1.404       .  A
C2868      F2869   1.359       .  S
C2873      C2874   1.406   1_545  A
C2873      C2878   1.401       .  A
C2873      H2880   1.084       .  S
C2874      C2875   1.406       .  A
C2875      C2876   1.406       .  A
C2875      F2882   1.357       .  S
C2876      C2877   1.411       .  A
C2876      H2881   1.083       .  S
C2877      C2878   1.410   1_565  A
C2878      F2879   1.357       .  S
C2883      C2884   1.403       .  A
C2883      C2888   1.389       .  A
C2883      H2890   1.084       .  S
C2884      C2885   1.407       .  A
C2885      C2886   1.400       .  A
C2885      F2892   1.357       .  S
C2886      C2887   1.404       .  A
C2886      H2891   1.084       .  S
C2887      C2888   1.405       .  A
C2888      F2889   1.359       .  S
C2893      C2894   1.400   1_565  A
C2893      C2898   1.400   1_565  A
C2893      H2900   1.084       .  S
C2894      C2895   1.408       .  A
C2895      C2896   1.409       .  A
C2895      F2902   1.357       .  S
C2896      C2897   1.406       .  A
C2896      H2901   1.083       .  S
C2897      C2898   1.411       .  A
C2898      F2899   1.358   1_545  S
C2903      C2904   1.403       .  A
C2903      C2908   1.396       .  A
C2903      H2910   1.084       .  S
C2904      C2905   1.398       .  A
C2905      C2906   1.395       .  A
C2905      F2912   1.358       .  S
C2906      C2907   1.410       .  A
C2906      H2911   1.083       .  S
C2907      C2908   1.407       .  A
C2908      F2909   1.357       .  S
C2913      C2914   1.404       .  A
C2913      C2918   1.395       .  A
C2913      H2920   1.083       .  S
C2914      C2915   1.410       .  A
C2915      C2916   1.395       .  A
C2915      F2922   1.358       .  S
C2916      C2917   1.404       .  A
C2916      H2921   1.083       .  S
C2917      C2918   1.410       .  A
C2918      F2919   1.357       .  S
C2923      C2924   1.412       .  A
C2923      C2928   1.407       .  A
C2923      H2930   1.083       .  S
C2924      C2925   1.409       .  A
C2925      C2926   1.401       .  A
C2925      F2932   1.357       .  S
C2926      C2927   1.408       .  A
C2926      H2931   1.084       .  S
C2927      C2928   1.406       .  A
C2928      F2929   1.357       .  S
C2933      C2934   1.407       .  A
C2933      C2938   1.395       .  A
C2933      H2940   1.083       .  S
C2934      C2935   1.406       .  A
C2935      C2936   1.398       .  A
C2935      F2942   1.357       .  S
C2936      C2937   1.403       .  A
C2936      H2941   1.084       .  S
C2937      C2938   1.399       .  A
C2938      F2939   1.358       .  S
C2943      C2944   1.405       .  A
C2943      C2948   1.395       .  A
C2943      H2950   1.084       .  S
C2944      C2945   1.405       .  A
C2945      C2946   1.405       .  A
C2945      F2952   1.357       .  S
C2946      C2947   1.406       .  A
C2946      H2951   1.084       .  S
C2947      C2948   1.402       .  A
C2948      F2949   1.358       .  S
C2953      C2954   1.405       .  A
C2953      C2958   1.395       .  A
C2953      H2960   1.084       .  S
C2954      C2955   1.408       .  A
C2955      C2956   1.391       .  A
C2955      F2962   1.358       .  S
C2956      C2957   1.404       .  A
C2956      H2961   1.083       .  S
C2957      C2958   1.408       .  A
C2958      F2959   1.358       .  S
C2963      C2964   1.395       .  A
C2963      C2968   1.391       .  A
C2963      H2970   1.084       .  S
C2964      C2965   1.407       .  A
C2965      C2966   1.405       .  A
C2965      F2972   1.358       .  S
C2966      C2967   1.407       .  A
C2966      H2971   1.083       .  S
C2967      C2968   1.415       .  A
C2968      F2969   1.358       .  S
C2973      C2974   1.407       .  A
C2973      C2978   1.400       .  A
C2973      H2980   1.083       .  S
C2974      C2975   1.409       .  A
C2975      C2976   1.399       .  A
C2975      F2982   1.357       .  S
C2976      C2977   1.407       .  A
C2976      H2981   1.083       .  S
C2977      C2978   1.409       .  A
C2978      F2979   1.357       .  S
C2983      C2984   1.398       .  A
C2983      C2988   1.399       .  A
C2983      H2990   1.084       .  S
C2984      C2985   1.405       .  A
C2985      C2986   1.394       .  A
C2985      F2992   1.358       .  S
C2986      C2987   1.404       .  A
C2986      H2991   1.084       .  S
C2987      C2988   1.415       .  A
C2988      F2989   1.357       .  S
C2993      C2994   1.410       .  A
C2993      C2998   1.401       .  A
C2993      H3000   1.083       .  S
C2994      C2995   1.409       .  A
C2995      C2996   1.394       .  A
C2995      F3002   1.358       .  S
C2996      C2997   1.403       .  A
C2996      H3001   1.084       .  S
C2997      C2998   1.404       .  A
C2998      F2999   1.357       .  S
C3003      C3004   1.393       .  A
C3003      C3008   1.381       .  A
C3003      H3010   1.085       .  S
C3004      C3005   1.405       .  A
C3005      C3006   1.405       .  A
C3005      F3012   1.357       .  S
C3006      C3007   1.407       .  A
C3006      H3011   1.083       .  S
C3007      C3008   1.413       .  A
C3008      F3009   1.358       .  S
C3013      C3014   1.390       .  A
C3013      C3018   1.382       .  A
C3013      H3020   1.085       .  S
C3014      C3015   1.410       .  A
C3015      C3016   1.414       .  A
C3015      F3022   1.356       .  S
C3016      C3017   1.407       .  A
C3016      H3021   1.083       .  S
C3017      C3018   1.409       .  A
C3018      F3019   1.345       .  S
C3023      C3024   1.397       .  A
C3023      C3028   1.390       .  A
C3023      H3030   1.084       .  S
C3024      C3025   1.405       .  A
C3025      C3026   1.401       .  A
C3025      F3032   1.358       .  S
C3026      C3027   1.406       .  A
C3026      H3031   1.083       .  S
C3027      C3028   1.412       .  A
C3028      F3029   1.358       .  S
C3033      C3034   1.405       .  A
C3033      C3038   1.397       .  A
C3033      H3040   1.083       .  S
C3034      C3035   1.410       .  A
C3035      C3036   1.405       .  A
C3035      F3042   1.357       .  S
C3036      C3037   1.406       .  A
C3036      H3041   1.083       .  S
C3037      C3038   1.408       .  A
C3038      F3039   1.358       .  S
C3043      C3044   1.401       .  A
C3043      C3048   1.389       .  A
C3043      H3050   1.084       .  S
C3044      C3045   1.412       .  A
C3045      C3046   1.399       .  A
C3045      F3052   1.357       .  S
C3046      C3047   1.399       .  A
C3046      H3051   1.083       .  S
C3047      C3048   1.407       .  A
C3048      F3049   1.357       .  S
C3053      C3054   1.400       .  A
C3053      C3058   1.400       .  A
C3053      H3060   1.083       .  S
C3054      C3055   1.408       .  A
C3055      C3056   1.390       .  A
C3055      F3062   1.358       .  S
C3056      C3057   1.401       .  A
C3056      H3061   1.084       .  S
C3057      C3058   1.412       .  A
C3058      F3059   1.357       .  S
C3063      C3064   1.407       .  A
C3063      C3068   1.405       .  A
C3063      H3070   1.083       .  S
C3064      C3065   1.410       .  A
C3065      C3066   1.390       .  A
C3065      F3072   1.358       .  S
C3066      C3067   1.402       .  A
C3066      H3071   1.084       .  S
C3067      C3068   1.408       .  A
C3068      F3069   1.357       .  S
C3073      C3074   1.404       .  A
C3073      C3078   1.395       .  A
C3073      H3080   1.084       .  S
C3074      C3075   1.406       .  A
C3075      C3076   1.401       .  A
C3075      F3082   1.357       .  S
C3076      C3077   1.404       .  A
C3076      H3081   1.084       .  S
C3077      C3078   1.403       .  A
C3078      F3079   1.358       .  S
C3083      C3084   1.408       .  A
C3083      C3088   1.399       .  A
C3083      H3090   1.083       .  S
C3084      C3085   1.407       .  A
C3085      C3086   1.396       .  A
C3085      F3092   1.355       .  S
C3086      C3087   1.401       .  A
C3086      H3091   1.084       .  S
C3087      C3088   1.401       .  A
C3088      F3089   1.357       .  S
C3093      C3094   1.405       .  A
C3093      C3098   1.390       .  A
C3093      H3100   1.084       .  S
C3094      C3095   1.410       .  A
C3095      C3096   1.406       .  A
C3095      F3102   1.357       .  S
C3096      C3097   1.406       .  A
C3096      H3101   1.083       .  S
C3097      C3098   1.404       .  A
C3098      F3099   1.358       .  S
C3103      C3104   1.404       .  A
C3103      C3108   1.398       .  A
C3103      H3110   1.083       .  S
C3104      C3105   1.411       .  A
C3105      C3106   1.399       .  A
C3105      F3112   1.358       .  S
C3106      C3107   1.405       .  A
C3106      H3111   1.083       .  S
C3107      C3108   1.412       .  A
C3108      F3109   1.358       .  S
C3113      C3114   1.406       .  A
C3113      C3118   1.405       .  A
C3113      H3120   1.084       .  S
C3114      C3115   1.403       .  A
C3115      C3116   1.395       .  A
C3115      F3122   1.358       .  S
C3116      C3117   1.403       .  A
C3116      H3121   1.084       .  S
C3117      C3118   1.405       .  A
C3118      F3119   1.357       .  S
C3123      C3124   1.403       .  A
C3123      C3128   1.395       .  A
C3123      H3130   1.084       .  S
C3124      C3125   1.406       .  A
C3125      C3126   1.404       .  A
C3125      F3132   1.357       .  S
C3126      C3127   1.405       .  A
C3126      H3131   1.084       .  S
C3127      C3128   1.404       .  A
C3128      F3129   1.358       .  S
C3133      C3134   1.405       .  A
C3133      C3138   1.392       .  A
C3133      H3140   1.084       .  S
C3134      C3135   1.408       .  A
C3135      C3136   1.410       .  A
C3135      F3142   1.357       .  S
C3136      C3137   1.410       .  A
C3136      H3141   1.083       .  S
C3137      C3138   1.408       .  A
C3138      F3139   1.358       .  S
C3143      C3144   1.410       .  A
C3143      C3148   1.417       .  A
C3143      H3150   1.083       .  S
C3144      C3145   1.411       .  A
C3145      C3146   1.373       .  A
C3145      F3152   1.355       .  S
C3146      C3147   1.389       .  A
C3146      H3151   1.085       .  S
C3147      C3148   1.410       .  A
C3148      F3149   1.356       .  S
C3153      C3154   1.406       .  A
C3153      C3158   1.405       .  A
C3153      H3160   1.083       .  S
C3154      C3155   1.403       .  A
C3155      C3156   1.396       .  A
C3155      F3162   1.358       .  S
C3156      C3157   1.404       .  A
C3156      H3161   1.084       .  S
C3157      C3158   1.405       .  A
C3158      F3159   1.357       .  S
C3163      C3164   1.405       .  A
C3163      C3168   1.378       .  A
C3163      H3170   1.084       .  S
C3164      C3165   1.412       .  A
C3165      C3166   1.422       .  A
C3165      F3172   1.356       .  S
C3166      C3167   1.415       .  A
C3166      H3171   1.083       .  S
C3167      C3168   1.404       .  A
C3168      F3169   1.359       .  S
C3173      C3174   1.406       .  A
C3173      C3178   1.390       .  A
C3173      H3180   1.083       .  S
C3174      C3175   1.411       .  A
C3175      C3176   1.402       .  A
C3175      F3182   1.357       .  S
C3176      C3177   1.403       .  A
C3176      H3181   1.084       .  S
C3177      C3178   1.401       .  A
C3178      F3179   1.358       .  S
C3183      C3184   1.405       .  A
C3183      C3188   1.398       .  A
C3183      H3190   1.083       .  S
C3184      C3185   1.413       .  A
C3185      C3186   1.402       .  A
C3185      F3192   1.358       .  S
C3186      C3187   1.403       .  A
C3186      H3191   1.083       .  S
C3187      C3188   1.408       .  A
C3188      F3189   1.358       .  S
C3193      C3194   1.402       .  A
C3193      C3198   1.393       .  A
C3193      H3200   1.084       .  S
C3194      C3195   1.398       .  A
C3195      C3196   1.396       .  A
C3195      F3202   1.357       .  S
C3196      C3197   1.411       .  A
C3196      H3201   1.083       .  S
C3197      C3198   1.407       .  A
C3198      F3199   1.358       .  S
C3203      C3204   1.404       .  A
C3203      C3208   1.398       .  A
C3203      H3210   1.084       .  S
C3204      C3205   1.406       .  A
C3205      C3206   1.407       .  A
C3205      F3212   1.357       .  S
C3206      C3207   1.408       .  A
C3206      H3211   1.084       .  S
C3207      C3208   1.405       .  A
C3208      F3209   1.358       .  S
C3213      C3214   1.401       .  A
C3213      C3218   1.394       .  A
C3213      H3220   1.084       .  S
C3214      C3215   1.407       .  A
C3215      C3216   1.403       .  A
C3215      F3222   1.358       .  S
C3216      C3217   1.403       .  A
C3216      H3221   1.083       .  S
C3217      C3218   1.404       .  A
C3218      F3219   1.358       .  S
C3223      C3224   1.412       .  A
C3223      C3228   1.410       .  A
C3223      H3230   1.083       .  S
C3224      C3225   1.411       .  A
C3225      C3226   1.403       .  A
C3225      F3232   1.357       .  S
C3226      C3227   1.407       .  A
C3226      H3231   1.084       .  S
C3227      C3228   1.408       .  A
C3228      F3229   1.357       .  S
C3233      C3234   1.405       .  A
C3233      C3238   1.402       .  A
C3233      H3240   1.083       .  S
C3234      C3235   1.415       .  A
C3235      C3236   1.391       .  A
C3235      F3242   1.358       .  S
C3236      C3237   1.394       .  A
C3236      H3241   1.084       .  S
C3237      C3238   1.405       .  A
C3238      F3239   1.358       .  S
C3243      C3244   1.404       .  A
C3243      C3248   1.407       .  A
C3243      H3250   1.083       .  S
C3244      C3245   1.407       .  A
C3245      C3246   1.399       .  A
C3245      F3252   1.358       .  S
C3246      C3247   1.402       .  A
C3246      H3251   1.084       .  S
C3247      C3248   1.409       .  A
C3248      F3249   1.357       .  S
C3253      C3254   1.405       .  A
C3253      C3258   1.397       .  A
C3253      H3260   1.083       .  S
C3254      C3255   1.410       .  A
C3255      C3256   1.403       .  A
C3255      F3262   1.357       .  S
C3256      C3257   1.407       .  A
C3256      H3261   1.083       .  S
C3257      C3258   1.412       .  A
C3258      F3259   1.358       .  S
C3263      C3264   1.398       .  A
C3263      C3268   1.399       .  A
C3263      H3270   1.084       .  S
C3264      C3265   1.404       .  A
C3265      C3266   1.395       .  A
C3265      F3272   1.357       .  S
C3266      C3267   1.404       .  A
C3266      H3271   1.084       .  S
C3267      C3268   1.414       .  A
C3268      F3269   1.357       .  S
C3273      C3274   1.404       .  A
C3273      C3278   1.398       .  A
C3273      H3280   1.084       .  S
C3274      C3275   1.405       .  A
C3275      C3276   1.404       .  A
C3275      F3282   1.357       .  S
C3276      C3277   1.407       .  A
C3276      H3281   1.084       .  S
C3277      C3278   1.403       .  A
C3278      F3279   1.358       .  S
C3283      C3284   1.402       .  A
C3283      C3288   1.400       .  A
C3283      H3290   1.083       .  S
C3284      C3285   1.405       .  A
C3285      C3286   1.390       .  A
C3285      F3292   1.359       .  S
C3286      C3287   1.399       .  A
C3286      H3291   1.084       .  S
C3287      C3288   1.404       .  A
C3288      F3289   1.357       .  S
C3293      C3294   1.401       .  A
C3293      C3298   1.399       .  A
C3293      H3300   1.084       .  S
C3294      C3295   1.406       .  A
C3295      C3296   1.403       .  A
C3295      F3302   1.357       .  S
C3296      C3297   1.402       .  A
C3296      H3301   1.084       .  S
C3297      C3298   1.407       .  A
C3298      F3299   1.357       .  S
C3303      C3304   1.406       .  A
C3303      C3308   1.411       .  A
C3303      H3310   1.083       .  S
C3304      C3305   1.407       .  A
C3305      C3306   1.393       .  A
C3305      F3312   1.358       .  S
C3306      C3307   1.400       .  A
C3306      H3311   1.084       .  S
C3307      C3308   1.410       .  A
C3308      F3309   1.357       .  S
C3313      C3314   1.407       .  A
C3313      C3318   1.406       .  A
C3313      H3320   1.083       .  S
C3314      C3315   1.402       .  A
C3315      C3316   1.385       .  A
C3315      F3322   1.359       .  S
C3316      C3317   1.405       .  A
C3316      H3321   1.084       .  S
C3317      C3318   1.408       .  A
C3318      F3319   1.357       .  S
C3323      C3324   1.403       .  A
C3323      C3328   1.399       .  A
C3323      H3330   1.084       .  S
C3324      C3325   1.410       .  A
C3325      C3326   1.409       .  A
C3325      F3332   1.357       .  S
C3326      C3327   1.405       .  A
C3326      H3331   1.083       .  S
C3327      C3328   1.407       .  A
C3328      F3329   1.358       .  S
C3333      C3334   1.408       .  A
C3333      C3338   1.401       .  A
C3333      H3340   1.083       .  S
C3334      C3335   1.409       .  A
C3335      C3336   1.401       .  A
C3335      F3342   1.358       .  S
C3336      C3337   1.408       .  A
C3336      H3341   1.083       .  S
C3337      C3338   1.408       .  A
C3338      F3339   1.357   1_655  S
C3343      C3344   1.411   1_655  A
C3343      C3348   1.399       .  A
C3343      H3350   1.083       .  S
C3344      C3345   1.407       .  A
C3345      C3346   1.392       .  A
C3345      F3352   1.358       .  S
C3346      C3347   1.403       .  A
C3346      H3351   1.084       .  S
C3347      C3348   1.400   1_455  A
C3348      F3349   1.357       .  S
C3353      C3354   1.402       .  A
C3353      C3358   1.398       .  A
C3353      H3360   1.084       .  S
C3354      C3355   1.409       .  A
C3355      C3356   1.408       .  A
C3355      F3362   1.358       .  S
C3356      C3357   1.405       .  A
C3356      H3361   1.083       .  S
C3357      C3358   1.407       .  A
C3358      F3359   1.357       .  S
C3363      C3364   1.409       .  A
C3363      C3368   1.394       .  A
C3363      H3370   1.083       .  S
C3364      C3365   1.406       .  A
C3365      C3366   1.399       .  A
C3365      F3372   1.357       .  S
C3366      C3367   1.409       .  A
C3366      H3371   1.083       .  S
C3367      C3368   1.406       .  A
C3368      F3369   1.358       .  S
C3373      C3374   1.396       .  A
C3373      C3378   1.392       .  A
C3373      H3380   1.084       .  S
C3374      C3375   1.405       .  A
C3375      C3376   1.402       .  A
C3375      F3382   1.358       .  S
C3376      C3377   1.406       .  A
C3376      H3381   1.083       .  S
C3377      C3378   1.414       .  A
C3378      F3379   1.358       .  S
C3383      C3384   1.403       .  A
C3383      C3388   1.393       .  A
C3383      H3390   1.084       .  S
C3384      C3385   1.415       .  A
C3385      C3386   1.400       .  A
C3385      F3392   1.358       .  S
C3386      C3387   1.398       .  A
C3386      H3391   1.084       .  S
C3387      C3388   1.404       .  A
C3388      F3389   1.356       .  S
C3393      C3394   1.406       .  A
C3393      C3398   1.405       .  A
C3393      H3400   1.084       .  S
C3394      C3395   1.403       .  A
C3395      C3396   1.398       .  A
C3395      F3402   1.358       .  S
C3396      C3397   1.405       .  A
C3396      H3401   1.084       .  S
C3397      C3398   1.406       .  A
C3398      F3399   1.358       .  S
C3403      C3404   1.406       .  A
C3403      C3408   1.398       .  A
C3403      H3410   1.083       .  S
C3404      C3405   1.410       .  A
C3405      C3406   1.402       .  A
C3405      F3412   1.357       .  S
C3406      C3407   1.407       .  A
C3406      H3411   1.083       .  S
C3407      C3408   1.410       .  A
C3408      F3409   1.358       .  S
C3413      C3414   1.404       .  A
C3413      C3418   1.393       .  A
C3413      H3420   1.084       .  S
C3414      C3415   1.400       .  A
C3415      C3416   1.398       .  A
C3415      F3422   1.357       .  S
C3416      C3417   1.411       .  A
C3416      H3421   1.083       .  S
C3417      C3418   1.406       .  A
C3418      F3419   1.358       .  S
C3423      C3424   1.402       .  A
C3423      C3428   1.393       .  A
C3423      H3430   1.083       .  S
C3424      C3425   1.414       .  A
C3425      C3426   1.402       .  A
C3425      F3432   1.357       .  S
C3426      C3427   1.399       .  A
C3426      H3431   1.083       .  S
C3427      C3428   1.407       .  A
C3428      F3429   1.358       .  S
C3433      C3434   1.404       .  A
C3433      C3438   1.406       .  A
C3433      H3440   1.083       .  S
C3434      C3435   1.407       .  A
C3435      C3436   1.395       .  A
C3435      F3442   1.357       .  S
C3436      C3437   1.401       .  A
C3436      H3441   1.084       .  S
C3437      C3438   1.408       .  A
C3438      F3439   1.357       .  S
C3443      C3444   1.403       .  A
C3443      C3448   1.396       .  A
C3443      H3450   1.084       .  S
C3444      C3445   1.405       .  A
C3445      C3446   1.406       .  A
C3445      F3452   1.357       .  S
C3446      C3447   1.407       .  A
C3446      H3451   1.084       .  S
C3447      C3448   1.405       .  A
C3448      F3449   1.358       .  S
C3453      C3454   1.409       .  A
C3453      C3458   1.409       .  A
C3453      H3460   1.083       .  S
C3454      C3455   1.413       .  A
C3455      C3456   1.404       .  A
C3455      F3462   1.357       .  S
C3456      C3457   1.408       .  A
C3456      H3461   1.083       .  S
C3457      C3458   1.413       .  A
C3458      F3459   1.357       .  S
C3463      C3464   1.403       .  A
C3463      C3468   1.400       .  A
C3463      H3470   1.084   1_455  S
C3464      C3465   1.407       .  A
C3465      C3466   1.404       .  A
C3465      F3472   1.357       .  S
C3466      C3467   1.403       .  A
C3466      H3471   1.084       .  S
C3467      C3468   1.407       .  A
C3468      F3469   1.357   1_455  S
C3473      C3474   1.398       .  A
C3473      C3478   1.399       .  A
C3473      H3480   1.084       .  S
C3474      C3475   1.406       .  A
C3475      C3476   1.395       .  A
C3475      F3482   1.358       .  S
C3476      C3477   1.403       .  A
C3476      H3481   1.084       .  S
C3477      C3478   1.414       .  A
C3478      F3479   1.357       .  S
C3483      C3484   1.407       .  A
C3483      C3488   1.404       .  A
C3483      H3490   1.083       .  S
C3484      C3485   1.411       .  A
C3485      C3486   1.390       .  A
C3485      F3492   1.358       .  S
C3486      C3487   1.400       .  A
C3486      H3491   1.084       .  S
C3487      C3488   1.406       .  A
C3488      F3489   1.357       .  S
C3493      C3494   1.406       .  A
C3493      C3498   1.400       .  A
C3493      H3500   1.083       .  S
C3494      C3495   1.415       .  A
C3495      C3496   1.407       .  A
C3495      F3502   1.357       .  S
C3496      C3497   1.404       .  A
C3496      H3501   1.083       .  S
C3497      C3498   1.408       .  A
C3498      F3499   1.358       .  S
C3503      C3504   1.406       .  A
C3503      C3508   1.397       .  A
C3503      H3510   1.084       .  S
C3504      C3505   1.406       .  A
C3505      C3506   1.407       .  A
C3505      F3512   1.357       .  S
C3506      C3507   1.407       .  A
C3506      H3511   1.084       .  S
C3507      C3508   1.403       .  A
C3508      F3509   1.358       .  S
C3513      C3514   1.405       .  A
C3513      C3518   1.406       .  A
C3513      H3520   1.083       .  S
C3514      C3515   1.407       .  A
C3515      C3516   1.399       .  A
C3515      F3522   1.358       .  S
C3516      C3517   1.407       .  A
C3516      H3521   1.083       .  S
C3517      C3518   1.412       .  A
C3518      F3519   1.357       .  S
C3523      C3524   1.400       .  A
C3523      C3528   1.400       .  A
C3523      H3530   1.083       .  S
C3524      C3525   1.410       .  A
C3525      C3526   1.395       .  A
C3525      F3532   1.358       .  S
C3526      C3527   1.400       .  A
C3526      H3531   1.083       .  S
C3527      C3528   1.413       .  A
C3528      F3529   1.358       .  S
C3533      C3534   1.404       .  A
C3533      C3538   1.406       .  A
C3533      H3540   1.083       .  S
C3534      C3535   1.404       .  A
C3535      C3536   1.385       .  A
C3535      F3542   1.358       .  S
C3536      C3537   1.397       .  A
C3536      H3541   1.085       .  S
C3537      C3538   1.406       .  A
C3538      F3539   1.357       .  S
C3543      C3544   1.408       .  A
C3543      C3548   1.403       .  A
C3543      H3550   1.084       .  S
C3544      C3545   1.404       .  A
C3545      C3546   1.401       .  A
C3545      F3552   1.358       .  S
C3546      C3547   1.407       .  A
C3546      H3551   1.084       .  S
C3547      C3548   1.404       .  A
C3548      F3549   1.358       .  S
C3553      C3554   1.409       .  A
C3553      C3558   1.400       .  A
C3553      H3560   1.083       .  S
C3554      C3555   1.409       .  A
C3555      C3556   1.403       .  A
C3555      F3562   1.357       .  S
C3556      C3557   1.409       .  A
C3556      H3561   1.083       .  S
C3557      C3558   1.409       .  A
C3558      F3559   1.357       .  S
C3563      C3564   1.410       .  A
C3563      C3568   1.395       .  A
C3563      H3570   1.083       .  S
C3564      C3565   1.406       .  A
C3565      C3566   1.395       .  A
C3565      F3572   1.358       .  S
C3566      C3567   1.403       .  A
C3566      H3571   1.084       .  S
C3567      C3568   1.398       .  A
C3568      F3569   1.358       .  S
C3573      C3574   1.407       .  A
C3573      C3578   1.407       .  A
C3573      H3580   1.084       .  S
C3574      C3575   1.405       .  A
C3575      C3576   1.397       .  A
C3575      F3582   1.358       .  S
C3576      C3577   1.404       .  A
C3576      H3581   1.084       .  S
C3577      C3578   1.406       .  A
C3578      F3579   1.357       .  S
C3583      C3584   1.405       .  A
C3583      C3588   1.398       .  A
C3583      H3590   1.084       .  S
C3584      C3585   1.406       .  A
C3585      C3586   1.407       .  A
C3585      F3592   1.357       .  S
C3586      C3587   1.407       .  A
C3586      H3591   1.084       .  S
C3587      C3588   1.404       .  A
C3588      F3589   1.358       .  S
C3593      C3594   1.401       .  A
C3593      C3598   1.389       .  A
C3593      H3600   1.084       .  S
C3594      C3595   1.414       .  A
C3595      C3596   1.398       .  A
C3595      F3602   1.357       .  S
C3596      C3597   1.397       .  A
C3596      H3601   1.084       .  S
C3597      C3598   1.405       .  A
C3598      F3599   1.356       .  S
C3603      C3604   1.403       .  A
C3603      C3608   1.403       .  A
C3603      H3610   1.083       .  S
C3604      C3605   1.407       .  A
C3605      C3606   1.398       .  A
C3605      F3612   1.358       .  S
C3606      C3607   1.405       .  A
C3606      H3611   1.083       .  S
C3607      C3608   1.413       .  A
C3608      F3609   1.357       .  S
C3613      C3614   1.405       .  A
C3613      C3618   1.396       .  A
C3613      H3620   1.083       .  S
C3614      C3615   1.408       .  A
C3615      C3616   1.387       .  A
C3615      F3622   1.358       .  S
C3616      C3617   1.403       .  A
C3616      H3621   1.083       .  S
C3617      C3618   1.407       .  A
C3618      F3619   1.358       .  S
C3623      C3624   1.410       .  A
C3623      C3628   1.394       .  A
C3623      H3630   1.083       .  S
C3624      C3625   1.408       .  A
C3625      C3626   1.403       .  A
C3625      F3632   1.357       .  S
C3626      C3627   1.404       .  A
C3626      H3631   1.084       .  S
C3627      C3628   1.398       .  A
C3628      F3629   1.358       .  S
C3633      C3634   1.406       .  A
C3633      C3638   1.400       .  A
C3633      H3640   1.083       .  S
C3634      C3635   1.414   1_546  A
C3635      C3636   1.407       .  A
C3635      F3642   1.357       .  S
C3636      C3637   1.405   1_565  A
C3636      H3641   1.083       .  S
C3637      C3638   1.409   1_554  A
C3638      F3639   1.358       .  S
C3643      C3644   1.406       .  A
C3643      C3648   1.407       .  A
C3643      H3650   1.084       .  S
C3644      C3645   1.401       .  A
C3645      C3646   1.398       .  A
C3645      F3652   1.358   1_554  S
C3646      C3647   1.409       .  A
C3646      H3651   1.084   1_554  S
C3647      C3648   1.407       .  A
C3648      F3649   1.357       .  S
C3653      C3654   1.397       .  A
C3653      C3658   1.377       .  A
C3653      H3660   1.084       .  S
C3654      C3655   1.414       .  A
C3655      C3656   1.424       .  A
C3655      F3662   1.356       .  S
C3656      C3657   1.413       .  A
C3656      H3661   1.083       .  S
C3657      C3658   1.413       .  A
C3658      F3659   1.358       .  S
C3663      C3664   1.404       .  A
C3663      C3668   1.395       .  A
C3663      H3670   1.083       .  S
C3664      C3665   1.407   1_554  A
C3665      C3666   1.393       .  A
C3665      F3672   1.358       .  S
C3666      C3667   1.404   1_556  A
C3666      H3671   1.083       .  S
C3667      C3668   1.409       .  A
C3668      F3669   1.358       .  S
C3673      C3674   1.403       .  A
C3673      C3678   1.395   1_554  A
C3673      H3680   1.084       .  S
C3674      C3675   1.403       .  A
C3675      C3676   1.401   1_554  A
C3675      F3682   1.357       .  S
C3676      C3677   1.410       .  A
C3676      H3681   1.083       .  S
C3677      C3678   1.408       .  A
C3678      F3679   1.357       .  S
C3683      C3684   1.398       .  A
C3683      C3688   1.386       .  A
C3683      H3690   1.085       .  S
C3684      C3685   1.406       .  A
C3685      C3686   1.404       .  A
C3685      F3692   1.357       .  S
C3686      C3687   1.403       .  A
C3686      H3691   1.083       .  S
C3687      C3688   1.404       .  A
C3688      F3689   1.358       .  S
C3693      C3694   1.402       .  A
C3693      C3698   1.399       .  A
C3693      H3700   1.084       .  S
C3694      C3695   1.408       .  A
C3695      C3696   1.400       .  A
C3695      F3702   1.357       .  S
C3696      C3697   1.402       .  A
C3696      H3701   1.084       .  S
C3697      C3698   1.408       .  A
C3698      F3699   1.358       .  S
C3703      C3704   1.398       .  A
C3703      C3708   1.377       .  A
C3703      H3710   1.086       .  S
C3704      C3705   1.408       .  A
C3705      C3706   1.417       .  A
C3705      F3712   1.356       .  S
C3706      C3707   1.412       .  A
C3706      H3711   1.083       .  S
C3707      C3708   1.404       .  A
C3708      F3709   1.356       .  S
C3713      C3714   1.406       .  A
C3713      C3718   1.391       .  A
C3713      H3720   1.083       .  S
C3714      C3715   1.405       .  A
C3715      C3716   1.393       .  A
C3715      F3722   1.358       .  S
C3716      C3717   1.406       .  A
C3716      H3721   1.078       .  S
C3717      C3718   1.405       .  A
C3718      F3719   1.358       .  S
C3723      C3724   1.398       .  A
C3723      C3728   1.395       .  A
C3723      H3730   1.083       .  S
C3724      C3725   1.417       .  A
C3725      C3726   1.395       .  A
C3725      F3732   1.358       .  S
C3726      C3727   1.397       .  A
C3726      H3731   1.083       .  S
C3727      C3728   1.417       .  A
C3728      F3729   1.358       .  S
C3733      C3734   1.404       .  A
C3733      C3738   1.405       .  A
C3733      H3740   1.083       .  S
C3734      C3735   1.407       .  A
C3735      C3736   1.402       .  A
C3735      F3742   1.358       .  S
C3736      C3737   1.404       .  A
C3736      H3741   1.084       .  S
C3737      C3738   1.408       .  A
C3738      F3739   1.357       .  S
C3743      C3744   1.406       .  A
C3743      C3748   1.410       .  A
C3743      H3750   1.083       .  S
C3744      C3745   1.411       .  A
C3745      C3746   1.401       .  A
C3745      F3752   1.358       .  S
C3746      C3747   1.401       .  A
C3746      H3751   1.084   1_455  S
C3747      C3748   1.410       .  A
C3748      F3749   1.358       .  S
C3753      C3754   1.401       .  A
C3753      C3758   1.391       .  A
C3753      H3760   1.084       .  S
C3754      C3755   1.404       .  A
C3755      C3756   1.404       .  A
C3755      F3762   1.357       .  S
C3756      C3757   1.405       .  A
C3756      H3761   1.083       .  S
C3757      C3758   1.403       .  A
C3758      F3759   1.359       .  S
C3763      C3764   1.402       .  A
C3763      C3768   1.389       .  A
C3763      H3770   1.083       .  S
C3764      C3765   1.413       .  A
C3765      C3766   1.402       .  A
C3765      F3772   1.357       .  S
C3766      C3767   1.399       .  A
C3766      H3771   1.084       .  S
C3767      C3768   1.406       .  A
C3768      F3769   1.358       .  S
C3773      C3774   1.412       .  A
C3773      C3778   1.424       .  A
C3773      H3780   1.082       .  S
C3774      C3775   1.412       .  A
C3775      C3776   1.380       .  A
C3775      F3782   1.358       .  S
C3776      C3777   1.399       .  A
C3776      H3781   1.084       .  S
C3777      C3778   1.415       .  A
C3778      F3779   1.356       .  S
C3783      C3784   1.398       .  A
C3783      C3788   1.400       .  A
C3783      H3790   1.084       .  S
C3784      C3785   1.412       .  A
C3785      C3786   1.399       .  A
C3785      F3792   1.358       .  S
C3786      C3787   1.401       .  A
C3786      H3791   1.083       .  S
C3787      C3788   1.416       .  A
C3788      F3789   1.357       .  S
C3793      C3794   1.402   1_556  A
C3793      C3798   1.401       .  A
C3793      H3800   1.083       .  S
C3794      C3795   1.404       .  A
C3795      C3796   1.388       .  A
C3795      F3802   1.357       .  S
C3796      C3797   1.398   1_554  A
C3796      H3801   1.084       .  S
C3797      C3798   1.406       .  A
C3798      F3799   1.357       .  S
C3803      C3804   1.408       .  A
C3803      C3808   1.403       .  A
C3803      H3810   1.084       .  S
C3804      C3805   1.405       .  A
C3805      C3806   1.402       .  A
C3805      F3812   1.358       .  S
C3806      C3807   1.408       .  A
C3806      H3811   1.084       .  S
C3807      C3808   1.404       .  A
C3808      F3809   1.357       .  S
C3813      C3814   1.404       .  A
C3813      C3818   1.396       .  A
C3813      H3820   1.084       .  S
C3814      C3815   1.407       .  A
C3815      C3816   1.407       .  A
C3815      F3822   1.357   1_554  S
C3816      C3817   1.407       .  A
C3816      H3821   1.084       .  S
C3817      C3818   1.404       .  A
C3818      F3819   1.358       .  S
C3823      C3824   1.400       .  A
C3823      C3828   1.388       .  A
C3823      H3830   1.084       .  S
C3824      C3825   1.407       .  A
C3825      C3826   1.405       .  A
C3825      F3832   1.357       .  S
C3826      C3827   1.405       .  A
C3826      H3831   1.083       .  S
C3827      C3828   1.405       .  A
C3828      F3829   1.358       .  S
C3833      C3834   1.409       .  A
C3833      C3838   1.403       .  A
C3833      H3840   1.084       .  S
C3834      C3835   1.403       .  A
C3835      C3836   1.401       .  A
C3835      F3842   1.358       .  S
C3836      C3837   1.407       .  A
C3836      H3841   1.084       .  S
C3837      C3838   1.403       .  A
C3838      F3839   1.357       .  S
C3843      C3844   1.406       .  A
C3843      C3848   1.394       .  A
C3843      H3850   1.084       .  S
C3844      C3845   1.400       .  A
C3845      C3846   1.399       .  A
C3845      F3852   1.357       .  S
C3846      C3847   1.410       .  A
C3846      H3851   1.083       .  S
C3847      C3848   1.403       .  A
C3848      F3849   1.357       .  S
C3853      C3854   1.405   1_655  A
C3853      C3858   1.393       .  A
C3853      H3860   1.083       .  S
C3854      C3855   1.408       .  A
C3855      C3856   1.395       .  A
C3855      F3862   1.358       .  S
C3856      C3857   1.406       .  A
C3856      H3861   1.084       .  S
C3857      C3858   1.406   1_455  A
C3858      F3859   1.358       .  S
C3863      C3864   1.407       .  A
C3863      C3868   1.406       .  A
C3863      H3870   1.084       .  S
C3864      C3865   1.403       .  A
C3865      C3866   1.398       .  A
C3865      F3872   1.358       .  S
C3866      C3867   1.406       .  A
C3866      H3871   1.084       .  S
C3867      C3868   1.405       .  A
C3868      F3869   1.357   1_545  S
C3873      C3874   1.400   1_565  A
C3873      C3878   1.397       .  A
C3873      H3880   1.084       .  S
C3874      C3875   1.403       .  A
C3875      C3876   1.391       .  A
C3875      F3882   1.358       .  S
C3876      C3877   1.405   1_545  A
C3876      H3881   1.084       .  S
C3877      C3878   1.412       .  A
C3878      F3879   1.357       .  S
C3883      C3884   1.400       .  A
C3883      C3888   1.398       .  A
C3883      H3890   1.084       .  S
C3884      C3885   1.408       .  A
C3885      C3886   1.405       .  A
C3885      F3892   1.358       .  S
C3886      C3887   1.403       .  A
C3886      H3891   1.084       .  S
C3887      C3888   1.408       .  A
C3888      F3889   1.358       .  S
C3893      C3894   1.403       .  A
C3893      C3898   1.386       .  A
C3893      H3900   1.084       .  S
C3894      C3895   1.403       .  A
C3895      C3896   1.402       .  A
C3895      F3902   1.357       .  S
C3896      C3897   1.408       .  A
C3896      H3901   1.083       .  S
C3897      C3898   1.405       .  A
C3898      F3899   1.359       .  S
C3903      C3904   1.405       .  A
C3903      C3908   1.405       .  A
C3903      H3910   1.084       .  S
C3904      C3905   1.407       .  A
C3905      C3906   1.406       .  A
C3905      F3912   1.358       .  S
C3906      C3907   1.407       .  A
C3906      H3911   1.084       .  S
C3907      C3908   1.408       .  A
C3908      F3909   1.357       .  S
C3913      C3914   1.407       .  A
C3913      C3918   1.400       .  A
C3913      H3920   1.083       .  S
C3914      C3915   1.400       .  A
C3915      C3916   1.398       .  A
C3915      F3922   1.357       .  S
C3916      C3917   1.407       .  A
C3916      H3921   1.083       .  S
C3917      C3918   1.401       .  A
C3918      F3919   1.357       .  S
C3923      C3924   1.407   1_455  A
C3923      C3928   1.403       .  A
C3923      H3930   1.084       .  S
C3924      C3925   1.406       .  A
C3925      C3926   1.405       .  A
C3925      F3932   1.357       .  S
C3926      C3927   1.407   1_655  A
C3926      H3931   1.083       .  S
C3927      C3928   1.406       .  A
C3928      F3929   1.357       .  S
C3933      C3934   1.401       .  A
C3933      C3938   1.390       .  A
C3933      H3940   1.084       .  S
C3934      C3935   1.408   1_655  A
C3935      C3936   1.397       .  A
C3935      F3942   1.357       .  S
C3936      C3937   1.406       .  A
C3936      H3941   1.083       .  S
C3937      C3938   1.406   1_455  A
C3938      F3939   1.349       .  S
C3943      C3944   1.399       .  A
C3943      C3948   1.386       .  A
C3943      H3950   1.084       .  S
C3944      C3945   1.407   1_554  A
C3945      C3946   1.403       .  A
C3945      F3952   1.357       .  S
C3946      C3947   1.403   1_556  A
C3946      H3951   1.083       .  S
C3947      C3948   1.404       .  A
C3948      F3949   1.357       .  S
C3953      C3954   1.403       .  A
C3953      C3958   1.402       .  A
C3953      H3960   1.084       .  S
C3954      C3955   1.410       .  A
C3955      C3956   1.404       .  A
C3955      F3962   1.357       .  S
C3956      C3957   1.403       .  A
C3956      H3961   1.083       .  S
C3957      C3958   1.410       .  A
C3958      F3959   1.357       .  S
C3963      C3964   1.406       .  A
C3963      C3968   1.402   1_655  A
C3963      H3970   1.084       .  S
C3964      C3965   1.406       .  A
C3965      C3966   1.408   1_655  A
C3965      F3972   1.357       .  S
C3966      C3967   1.413       .  A
C3966      H3971   1.083       .  S
C3967      C3968   1.410       .  A
C3968      F3969   1.357       .  S
C3973      C3974   1.409       .  A
C3973      C3978   1.396       .  A
C3973      H3980   1.084       .  S
C3974      C3975   1.400       .  A
C3975      C3976   1.396       .  A
C3975      F3982   1.358       .  S
C3976      C3977   1.412       .  A
C3976      H3981   1.083       .  S
C3977      C3978   1.403       .  A
C3978      F3979   1.357       .  S
C3983      C3984   1.405       .  A
C3983      C3988   1.404       .  A
C3983      H3990   1.084       .  S
C3984      C3985   1.407       .  A
C3985      C3986   1.405       .  A
C3985      F3992   1.357       .  S
C3986      C3987   1.405       .  A
C3986      H3991   1.084       .  S
C3987      C3988   1.407       .  A
C3988      F3989   1.357       .  S
C3993      C3994   1.408       .  A
C3993      C3998   1.407       .  A
C3993      H4000   1.084       .  S
C3994      C3995   1.401       .  A
C3995      C3996   1.399       .  A
C3995      F4002   1.357       .  S
C3996      C3997   1.408       .  A
C3996      H4001   1.084       .  S
C3997      C3998   1.406       .  A
C3998      F3999   1.357       .  S
C4003      C4004   1.408   1_455  A
C4003      C4008   1.403       .  A
C4003      H4010   1.083       .  S
C4004      C4005   1.412       .  A
C4005      C4006   1.403       .  A
C4005      F4012   1.357       .  S
C4006      C4007   1.408   1_655  A
C4006      H4011   1.083       .  S
C4007      C4008   1.412       .  A
C4008      F4009   1.357       .  S
C4013      C4014   1.400   1_455  A
C4013      C4018   1.403       .  A
C4013      H4020   1.083       .  S
C4014      C4015   1.407       .  A
C4015      C4016   1.392       .  A
C4015      F4022   1.358       .  S
C4016      C4017   1.402   1_655  A
C4016      H4021   1.082       .  S
C4017      C4018   1.414       .  A
C4018      F4019   1.357       .  S
C4023      C4024   1.410       .  A
C4023      C4028   1.393       .  A
C4023      H4030   1.083       .  S
C4024      C4025   1.405       .  A
C4025      C4026   1.399       .  A
C4025      F4032   1.357       .  S
C4026      C4027   1.404       .  A
C4026      H4031   1.084       .  S
C4027      C4028   1.397       .  A
C4028      F4029   1.358       .  S
C4033      C4034   1.407       .  A
C4033      C4038   1.406       .  A
C4033      H4040   1.084       .  S
C4034      C4035   1.404       .  A
C4035      C4036   1.398       .  A
C4035      F4042   1.358       .  S
C4036      C4037   1.405       .  A
C4036      H4041   1.084       .  S
C4037      C4038   1.406       .  A
C4038      F4039   1.357   1_655  S
C4043      C4044   1.406       .  A
C4043      C4048   1.402       .  A
C4043      H4050   1.084       .  S
C4044      C4045   1.404       .  A
C4045      C4046   1.404       .  A
C4045      F4052   1.357       .  S
C4046      C4047   1.410       .  A
C4046      H4051   1.084       .  S
C4047      C4048   1.406       .  A
C4048      F4049   1.358       .  S
C4053      C4054   1.410       .  A
C4053      C4058   1.404   1_655  A
C4053      H4060   1.083       .  S
C4054      C4055   1.409       .  A
C4055      C4056   1.401   1_655  A
C4055      F4062   1.357       .  S
C4056      C4057   1.409       .  A
C4056      H4061   1.083       .  S
C4057      C4058   1.409       .  A
C4058      F4059   1.357       .  S
C4063      C4064   1.400       .  A
C4063      C4068   1.400       .  A
C4063      H4070   1.083       .  S
C4064      C4065   1.407       .  A
C4065      C4066   1.392       .  A
C4065      F4072   1.358       .  S
C4066      C4067   1.402       .  A
C4066      H4071   1.083       .  S
C4067      C4068   1.412       .  A
C4068      F4069   1.357       .  S
C4073      C4074   1.401       .  A
C4073      C4078   1.395       .  A
C4073      H4080   1.084       .  S
C4074      C4075   1.408       .  A
C4075      C4076   1.406       .  A
C4075      F4082   1.357       .  S
C4076      C4077   1.404       .  A
C4076      H4081   1.083       .  S
C4077      C4078   1.407       .  A
C4078      F4079   1.358       .  S
C4083      C4084   1.411       .  A
C4083      C4088   1.400       .  A
C4083      H4090   1.083       .  S
C4084      C4085   1.407       .  A
C4085      C4086   1.392       .  A
C4085      F4092   1.358       .  S
C4086      C4087   1.404       .  A
C4086      H4091   1.084       .  S
C4087      C4088   1.401       .  A
C4088      F4089   1.357       .  S
C4093      C4094   1.401       .  A
C4093      C4098   1.388       .  A
C4093      H4100   1.084       .  S
C4094      C4095   1.408       .  A
C4095      C4096   1.404       .  A
C4095      F4102   1.357       .  S
C4096      C4097   1.406       .  A
C4096      H4101   1.083       .  S
C4097      C4098   1.408       .  A
C4098      F4099   1.358       .  S
C4103      C4104   1.404       .  A
C4103      C4108   1.399       .  A
C4103      H4110   1.083       .  S
C4104      C4105   1.410   1_565  A
C4105      C4106   1.401       .  A
C4105      F4112   1.357   1_655  S
C4106      C4107   1.405   1_545  A
C4106      H4111   1.083       .  S
C4107      C4108   1.412       .  A
C4108      F4109   1.358       .  S
C4113      C4114   1.403       .  A
C4113      C4118   1.393       .  A
C4113      H4120   1.084       .  S
C4114      C4115   1.399   1_455  A
C4115      C4116   1.398       .  A
C4115      F4122   1.357       .  S
C4116      C4117   1.411   1_655  A
C4116      H4121   1.083       .  S
C4117      C4118   1.406       .  A
C4118      F4119   1.358       .  S
C4123      C4124   1.407       .  A
C4123      C4128   1.408       .  A
C4123      H4130   1.084       .  S
C4124      C4125   1.404       .  A
C4125      C4126   1.400       .  A
C4125      F4132   1.358       .  S
C4126      C4127   1.406       .  A
C4126      H4131   1.084       .  S
C4127      C4128   1.407       .  A
C4128      F4129   1.357       .  S
C4133      C4134   1.401       .  A
C4133      C4138   1.388       .  A
C4133      H4140   1.084       .  S
C4134      C4135   1.404       .  A
C4135      C4136   1.402       .  A
C4135      F4142   1.357   1_565  S
C4136      C4137   1.406       .  A
C4136      H4141   1.083   1_565  S
C4137      C4138   1.403       .  A
C4138      F4139   1.359       .  S
C4143      C4144   1.409       .  A
C4143      C4148   1.403       .  A
C4143      H4150   1.083       .  S
C4144      C4145   1.411       .  A
C4145      C4146   1.413   1_565  A
C4145      F4152   1.357       .  S
C4146      C4147   1.411       .  A
C4146      H4151   1.083       .  S
C4147      C4148   1.410   1_545  A
C4148      F4149   1.358       .  S
C4153      C4154   1.409       .  A
C4153      C4158   1.397       .  A
C4153      H4160   1.084       .  S
C4154      C4155   1.401       .  A
C4155      C4156   1.397       .  A
C4155      F4162   1.357       .  S
C4156      C4157   1.409       .  A
C4156      H4161   1.084       .  S
C4157      C4158   1.401       .  A
C4158      F4159   1.357       .  S
C4163      C4164   1.408       .  A
C4163      C4168   1.395       .  A
C4163      H4170   1.083       .  S
C4164      C4165   1.408       .  A
C4165      C4166   1.391       .  A
C4165      F4172   1.358       .  S
C4166      C4167   1.400       .  A
C4166      H4171   1.084       .  S
C4167      C4168   1.399       .  A
C4168      F4169   1.358       .  S
C4173      C4174   1.408       .  A
C4173      C4178   1.410       .  A
C4173      H4180   1.084       .  S
C4174      C4175   1.403       .  A
C4175      C4176   1.403       .  A
C4175      F4182   1.357       .  S
C4176      C4177   1.409       .  A
C4176      H4181   1.084       .  S
C4177      C4178   1.408       .  A
C4178      F4179   1.357       .  S
C4183      C4184   1.408       .  A
C4183      C4188   1.403       .  A
C4183      H4190   1.084       .  S
C4184      C4185   1.407       .  A
C4185      C4186   1.406       .  A
C4185      F4192   1.358       .  S
C4186      C4187   1.406       .  A
C4186      H4191   1.084       .  S
C4187      C4188   1.403       .  A
C4188      F4189   1.357       .  S
C4193      C4194   1.409       .  A
C4193      C4198   1.400       .  A
C4193      H4200   1.083       .  S
C4194      C4195   1.410   1_565  A
C4195      C4196   1.408   1_545  A
C4195      F4202   1.357       .  S
C4196      C4197   1.408       .  A
C4196      H4201   1.083   1_565  S
C4197      C4198   1.408       .  A
C4198      F4199   1.358       .  S
C4203      C4204   1.403       .  A
C4203      C4208   1.407   1_565  A
C4203      H4210   1.079   1_565  S
C4204      C4205   1.404       .  A
C4205      C4206   1.395       .  A
C4205      F4212   1.358       .  S
C4206      C4207   1.407       .  A
C4206      H4211   1.075       .  S
C4207      C4208   1.414   1_565  A
C4208      F4209   1.357       .  S
C4213      C4214   1.411       .  A
C4213      C4218   1.399       .  A
C4213      H4220   1.083       .  S
C4214      C4215   1.406       .  A
C4215      C4216   1.391       .  A
C4215      F4222   1.358       .  S
C4216      C4217   1.403       .  A
C4216      H4221   1.084       .  S
C4217      C4218   1.400       .  A
C4218      F4219   1.357       .  S
C4223      C4224   1.404       .  A
C4223      C4228   1.405       .  A
C4223      H4230   1.084       .  S
C4224      C4225   1.409       .  A
C4225      C4226   1.405       .  A
C4225      F4232   1.358       .  S
C4226      C4227   1.404       .  A
C4226      H4231   1.084       .  S
C4227      C4228   1.407       .  A
C4228      F4229   1.356       .  S
C4233      C4234   1.390       .  A
C4233      C4238   1.377       .  A
C4233      H4240   1.086       .  S
C4234      C4235   1.412       .  A
C4235      C4236   1.419       .  A
C4235      F4242   1.356       .  S
C4236      C4237   1.410       .  A
C4236      H4241   1.083       .  S
C4237      C4238   1.413       .  A
C4238      F4239   1.353       .  S
C4243      C4244   1.408   1_565  A
C4243      C4248   1.393       .  A
C4243      H4250   1.083   1_565  S
C4244      C4245   1.413   1_545  A
C4245      C4246   1.417       .  A
C4245      F4252   1.357   1_565  S
C4246      C4247   1.409       .  A
C4246      H4251   1.083       .  S
C4247      C4248   1.403       .  A
C4248      F4249   1.359       .  S
C4253      C4254   1.400       .  A
C4253      C4258   1.390       .  A
C4253      H4260   1.084       .  S
C4254      C4255   1.400       .  A
C4255      C4256   1.395       .  A
C4255      F4262   1.357       .  S
C4256      C4257   1.407       .  A
C4256      H4261   1.083       .  S
C4257      C4258   1.408       .  A
C4258      F4259   1.358       .  S
C4263      C4264   1.405       .  A
C4263      C4268   1.395       .  A
C4263      H4270   1.084       .  S
C4264      C4265   1.407       .  A
C4265      C4266   1.390       .  A
C4265      F4272   1.358       .  S
C4266      C4267   1.404       .  A
C4266      H4271   1.083       .  S
C4267      C4268   1.408       .  A
C4268      F4269   1.358       .  S
C4273      C4274   1.405       .  A
C4273      C4278   1.404       .  A
C4273      H4280   1.084       .  S
C4274      C4275   1.407       .  A
C4275      C4276   1.407       .  A
C4275      F4282   1.357       .  S
C4276      C4277   1.406       .  A
C4276      H4281   1.084       .  S
C4277      C4278   1.408       .  A
C4278      F4279   1.358       .  S
C4283      C4284   1.411       .  A
C4283      C4288   1.395       .  A
C4283      H4290   1.084       .  S
C4284      C4285   1.402       .  A
C4285      C4286   1.396       .  A
C4285      F4292   1.357       .  S
C4286      C4287   1.407       .  A
C4286      H4291   1.084       .  S
C4287      C4288   1.399       .  A
C4288      F4289   1.358       .  S
C4293      C4294   1.408   1_554  A
C4293      C4298   1.401       .  A
C4293      H4300   1.083       .  S
C4294      C4295   1.410       .  A
C4295      C4296   1.402       .  A
C4295      F4302   1.357       .  S
C4296      C4297   1.408   1_556  A
C4296      H4301   1.083       .  S
C4297      C4298   1.410       .  A
C4298      F4299   1.357       .  S
C4303      C4304   1.402       .  A
C4303      C4308   1.395       .  A
C4303      H4310   1.083       .  S
C4304      C4305   1.403   1_556  A
C4305      C4306   1.401       .  A
C4305      F4312   1.357       .  S
C4306      C4307   1.404   1_554  A
C4306      H4311   1.084       .  S
C4307      C4308   1.402       .  A
C4308      F4309   1.358       .  S
C4313      C4314   1.411       .  A
C4313      C4318   1.399       .  A
C4313      H4320   1.083       .  S
C4314      C4315   1.406   1_565  A
C4315      C4316   1.392       .  A
C4315      F4322   1.358       .  S
C4316      C4317   1.404       .  A
C4316      H4321   1.084       .  S
C4317      C4318   1.399   1_545  A
C4318      F4319   1.357       .  S
C4323      C4324   1.407       .  A
C4323      C4328   1.407       .  A
C4323      H4330   1.084       .  S
C4324      C4325   1.403       .  A
C4325      C4326   1.400       .  A
C4325      F4332   1.358       .  S
C4326      C4327   1.407       .  A
C4326      H4331   1.084       .  S
C4327      C4328   1.406       .  A
C4328      F4329   1.357       .  S
C4333      C4334   1.406       .  A
C4333      C4338   1.401   1_556  A
C4333      H4340   1.084       .  S
C4334      C4335   1.405       .  A
C4335      C4336   1.402   1_556  A
C4335      F4342   1.357       .  S
C4336      C4337   1.406       .  A
C4336      H4341   1.084       .  S
C4337      C4338   1.405       .  A
C4338      F4339   1.358       .  S
C4343      C4344   1.395       .  A
C4343      C4348   1.393       .  A
C4343      H4350   1.084       .  S
C4344      C4345   1.405       .  A
C4345      C4346   1.402       .  A
C4345      F4352   1.357       .  S
C4346      C4347   1.405       .  A
C4346      H4351   1.083       .  S
C4347      C4348   1.414       .  A
C4348      F4349   1.358       .  S
C4353      C4354   1.397       .  A
C4353      C4358   1.393       .  A
C4353      H4360   1.084       .  S
C4354      C4355   1.403       .  A
C4355      C4356   1.397       .  A
C4355      F4362   1.358       .  S
C4356      C4357   1.405       .  A
C4356      H4361   1.084       .  S
C4357      C4358   1.412       .  A
C4358      F4359   1.358       .  S
C4363      C4364   1.409       .  A
C4363      C4368   1.402       .  A
C4363      H4370   1.084       .  S
C4364      C4365   1.403       .  A
C4365      C4366   1.402       .  A
C4365      F4372   1.357       .  S
C4366      C4367   1.409       .  A
C4366      H4371   1.084       .  S
C4367      C4368   1.403       .  A
C4368      F4369   1.358       .  S
C4373      C4374   1.407       .  A
C4373      C4378   1.406       .  A
C4373      H4380   1.084       .  S
C4374      C4375   1.402       .  A
C4375      C4376   1.399       .  A
C4375      F4382   1.358       .  S
C4376      C4377   1.408       .  A
C4376      H4381   1.084       .  S
C4377      C4378   1.406       .  A
C4378      F4379   1.357       .  S
C4383      C4384   1.410       .  A
C4383      C4388   1.397       .  A
C4383      H4390   1.083       .  S
C4384      C4385   1.407       .  A
C4385      C4386   1.393       .  A
C4385      F4392   1.358       .  S
C4386      C4387   1.403       .  A
C4386      H4391   1.084       .  S
C4387      C4388   1.400       .  A
C4388      F4389   1.357       .  S
C4393      C4394   1.411       .  A
C4393      C4398   1.400       .  A
C4393      H4400   1.083       .  S
C4394      C4395   1.407       .  A
C4395      C4396   1.395       .  A
C4395      F4402   1.358       .  S
C4396      C4397   1.404       .  A
C4396      H4401   1.084       .  S
C4397      C4398   1.400       .  A
C4398      F4399   1.357       .  S
C4403      C4404   1.405       .  A
C4403      C4408   1.396       .  A
C4403      H4410   1.084       .  S
C4404      C4405   1.405       .  A
C4405      C4406   1.406       .  A
C4405      F4412   1.357       .  S
C4406      C4407   1.407       .  A
C4406      H4411   1.084       .  S
C4407      C4408   1.404       .  A
C4408      F4409   1.358       .  S
C4413      C4414   1.406       .  A
C4413      C4418   1.395       .  A
C4413      H4420   1.084       .  S
C4414      C4415   1.408       .  A
C4415      C4416   1.391       .  A
C4415      F4422   1.358       .  S
C4416      C4417   1.404       .  A
C4416      H4421   1.083       .  S
C4417      C4418   1.407       .  A
C4418      F4419   1.357       .  S
C4423      C4424   1.403       .  A
C4423      C4428   1.399       .  A
C4423      H4430   1.084       .  S
C4424      C4425   1.410       .  A
C4425      C4426   1.409       .  A
C4425      F4432   1.357       .  S
C4426      C4427   1.406       .  A
C4426      H4431   1.083       .  S
C4427      C4428   1.408       .  A
C4428      F4429   1.358       .  S
C4433      C4434   1.401       .  A
C4433      C4438   1.385       .  A
C4433      H4440   1.084       .  S
C4434      C4435   1.403   1_556  A
C4435      C4436   1.404       .  A
C4435      F4442   1.357       .  S
C4436      C4437   1.410       .  A
C4436      H4441   1.083       .  S
C4437      C4438   1.407   1_554  A
C4438      F4439   1.358       .  S
C4443      C4444   1.415       .  A
C4443      C4448   1.425       .  A
C4443      H4450   1.083       .  S
C4444      C4445   1.399       .  A
C4445      C4446   1.373       .  A
C4445      F4452   1.361       .  S
C4446      C4447   1.404       .  A
C4446      H4451   1.083       .  S
C4447      C4448   1.412       .  A
C4448      F4449   1.356       .  S
C4453      C4454   1.411       .  A
C4453      C4458   1.401       .  A
C4453      H4460   1.083       .  S
C4454      C4455   1.407       .  A
C4455      C4456   1.388       .  A
C4455      F4462   1.358       .  S
C4456      C4457   1.401       .  A
C4456      H4461   1.083       .  S
C4457      C4458   1.401       .  A
C4458      F4459   1.357       .  S
C4463      C4464   1.406       .  A
C4463      C4468   1.405       .  A
C4463      H4470   1.084       .  S
C4464      C4465   1.408       .  A
C4465      C4466   1.405       .  A
C4465      F4472   1.358       .  S
C4466      C4467   1.405       .  A
C4466      H4471   1.084       .  S
C4467      C4468   1.407       .  A
C4468      F4469   1.357   1_556  S
C4473      C4474   1.403       .  A
C4473      C4478   1.401       .  A
C4473      H4480   1.083       .  S
C4474      C4475   1.413       .  A
C4475      C4476   1.396       .  A
C4475      F4482   1.358       .  S
C4476      C4477   1.396       .  A
C4476      H4481   1.084       .  S
C4477      C4478   1.406       .  A
C4478      F4479   1.358       .  S
C4483      C4484   1.405   1_655  A
C4483      C4488   1.396   1_655  A
C4483      H4490   1.083       .  S
C4484      C4485   1.412       .  A
C4485      C4486   1.400       .  A
C4485      F4492   1.358       .  S
C4486      C4487   1.406       .  A
C4486      H4491   1.083       .  S
C4487      C4488   1.409       .  A
C4488      F4489   1.358   1_455  S
C4493      C4494   1.413       .  A
C4493      C4498   1.419       .  A
C4493      H4500   1.083       .  S
C4494      C4495   1.405       .  A
C4495      C4496   1.369       .  A
C4495      F4502   1.360       .  S
C4496      C4497   1.399       .  A
C4496      H4501   1.083       .  S
C4497      C4498   1.410       .  A
C4498      F4499   1.356       .  S
C4503      C4504   1.400       .  A
C4503      C4508   1.399       .  A
C4503      H4510   1.083       .  S
C4504      C4505   1.408       .  A
C4505      C4506   1.389       .  A
C4505      F4512   1.359       .  S
C4506      C4507   1.401       .  A
C4506      H4511   1.083       .  S
C4507      C4508   1.410       .  A
C4508      F4509   1.357       .  S
C4513      C4514   1.409       .  A
C4513      C4518   1.402       .  A
C4513      H4520   1.084       .  S
C4514      C4515   1.404       .  A
C4515      C4516   1.401       .  A
C4515      F4522   1.358       .  S
C4516      C4517   1.407       .  A
C4516      H4521   1.084       .  S
C4517      C4518   1.405       .  A
C4518      F4519   1.357       .  S
C4523      C4524   1.405       .  A
C4523      C4528   1.401       .  A
C4523      H4530   1.084       .  S
C4524      C4525   1.399       .  A
C4525      C4526   1.391       .  A
C4525      F4532   1.359       .  S
C4526      C4527   1.408       .  A
C4526      H4531   1.084       .  S
C4527      C4528   1.405       .  A
C4528      F4529   1.357       .  S
C4533      C4534   1.409       .  A
C4533      C4538   1.415       .  A
C4533      H4540   1.083       .  S
C4534      C4535   1.410       .  A
C4535      C4536   1.378       .  A
C4535      F4542   1.354       .  S
C4536      C4537   1.390       .  A
C4536      H4541   1.085       .  S
C4537      C4538   1.409       .  A
C4538      F4539   1.357       .  S
C4543      C4544   1.400       .  A
C4543      C4548   1.396       .  A
C4543      H4550   1.084       .  S
C4544      C4545   1.401       .  A
C4545      C4546   1.398       .  A
C4545      F4552   1.357       .  S
C4546      C4547   1.407       .  A
C4546      H4551   1.083       .  S
C4547      C4548   1.407       .  A
C4548      F4549   1.355       .  S
C4553      C4554   1.409       .  A
C4553      C4558   1.415       .  A
C4553      H4560   1.083       .  S
C4554      C4555   1.410       .  A
C4555      C4556   1.378       .  A
C4555      F4562   1.352       .  S
C4556      C4557   1.390       .  A
C4556      H4561   1.085       .  S
C4557      C4558   1.410       .  A
C4558      F4559   1.357       .  S
C4563      C4564   1.399       .  A
C4563      C4568   1.394       .  A
C4563      H4570   1.084       .  S
C4564      C4565   1.406       .  A
C4565      C4566   1.402       .  A
C4565      F4572   1.358       .  S
C4566      C4567   1.404       .  A
C4566      H4571   1.083       .  S
C4567      C4568   1.409       .  A
C4568      F4569   1.358       .  S
C4573      C4574   1.399       .  A
C4573      C4578   1.391       .  A
C4573      H4580   1.084       .  S
C4574      C4575   1.408   1_554  A
C4575      C4576   1.410       .  A
C4575      F4582   1.357       .  S
C4576      C4577   1.406       .  A
C4576      H4581   1.083       .  S
C4577      C4578   1.407   1_556  A
C4578      F4579   1.359       .  S
C4583      C4584   1.401       .  A
C4583      C4588   1.394       .  A
C4583      H4590   1.084       .  S
C4584      C4585   1.401       .  A
C4585      C4586   1.400       .  A
C4585      F4592   1.357       .  S
C4586      C4587   1.409       .  A
C4586      H4591   1.083       .  S
C4587      C4588   1.408       .  A
C4588      F4589   1.355       .  S
C4593      C4594   1.410       .  A
C4593      C4598   1.418       .  A
C4593      H4600   1.083       .  S
C4594      C4595   1.412       .  A
C4595      C4596   1.377       .  A
C4595      F4602   1.356       .  S
C4596      C4597   1.391       .  A
C4596      H4601   1.085       .  S
C4597      C4598   1.411       .  A
C4598      F4599   1.356       .  S
C4603      C4604   1.404       .  A
C4603      C4608   1.388       .  A
C4603      H4610   1.083       .  S
C4604      C4605   1.402   1_554  A
C4605      C4606   1.402       .  A
C4605      F4612   1.357       .  S
C4606      C4607   1.406       .  A
C4606      H4611   1.084       .  S
C4607      C4608   1.400   1_556  A
C4608      F4609   1.359       .  S
C4613      C4614   1.406       .  A
C4613      C4618   1.399       .  A
C4613      H4620   1.084       .  S
C4614      C4615   1.406       .  A
C4615      C4616   1.399       .  A
C4615      F4622   1.357       .  S
C4616      C4617   1.406       .  A
C4616      H4621   1.084       .  S
C4617      C4618   1.404       .  A
C4618      F4619   1.357       .  S
C4623      C4624   1.409       .  A
C4623      C4628   1.406   1_554  A
C4623      H4630   1.083       .  S
C4624      C4625   1.412       .  A
C4625      C4626   1.406   1_554  A
C4625      F4632   1.357       .  S
C4626      C4627   1.409       .  A
C4626      H4631   1.083       .  S
C4627      C4628   1.412       .  A
C4628      F4629   1.357       .  S
C4633      C4634   1.411       .  A
C4633      C4638   1.400       .  A
C4633      H4640   1.083       .  S
C4634      C4635   1.408       .  A
C4635      C4636   1.394       .  A
C4635      F4642   1.358       .  S
C4636      C4637   1.403       .  A
C4636      H4641   1.084       .  S
C4637      C4638   1.401       .  A
C4638      F4639   1.357       .  S
C4643      C4644   1.404       .  A
C4643      C4648   1.406       .  A
C4643      H4650   1.083       .  S
C4644      C4645   1.407       .  A
C4645      C4646   1.397       .  A
C4645      F4652   1.358       .  S
C4646      C4647   1.402       .  A
C4646      H4651   1.084       .  S
C4647      C4648   1.409       .  A
C4648      F4649   1.358       .  S
C4653      C4654   1.406       .  A
C4653      C4658   1.392       .  A
C4653      H4660   1.083       .  S
C4654      C4655   1.405       .  A
C4655      C4656   1.392       .  A
C4655      F4662   1.357       .  S
C4656      C4657   1.405       .  A
C4656      H4661   1.079       .  S
C4657      C4658   1.405       .  A
C4658      F4659   1.358       .  S
C4663      C4664   1.406       .  A
C4663      C4668   1.408       .  A
C4663      H4670   1.084       .  S
C4664      C4665   1.409       .  A
C4665      C4666   1.408       .  A
C4665      F4672   1.357       .  S
C4666      C4667   1.406       .  A
C4666      H4671   1.084       .  S
C4667      C4668   1.408       .  A
C4668      F4669   1.357       .  S
C4673      C4674   1.407       .  A
C4673      C4678   1.406       .  A
C4673      H4680   1.083       .  S
C4674      C4675   1.411       .  A
C4675      C4676   1.391       .  A
C4675      F4682   1.358       .  S
C4676      C4677   1.400       .  A
C4676      H4681   1.084       .  S
C4677      C4678   1.409       .  A
C4678      F4679   1.357       .  S
C4683      C4684   1.398       .  A
C4683      C4688   1.388       .  A
C4683      H4690   1.084       .  S
C4684      C4685   1.405   1_565  A
C4685      C4686   1.403   1_545  A
C4685      F4692   1.357       .  S
C4686      C4687   1.403       .  A
C4686      H4691   1.083   1_565  S
C4687      C4688   1.402       .  A
C4688      F4689   1.358       .  S
C4693      C4694   1.403       .  A
C4693      C4698   1.403       .  A
C4693      H4700   1.084       .  S
C4694      C4695   1.406       .  A
C4695      C4696   1.396       .  A
C4695      F4702   1.358       .  S
C4696      C4697   1.400       .  A
C4696      H4701   1.084       .  S
C4697      C4698   1.407       .  A
C4698      F4699   1.358       .  S
C4703      C4704   1.410       .  A
C4703      C4708   1.401       .  A
C4703      H4710   1.083       .  S
C4704      C4705   1.405       .  A
C4705      C4706   1.387       .  A
C4705      F4712   1.358       .  S
C4706      C4707   1.404       .  A
C4706      H4711   1.084       .  S
C4707      C4708   1.401       .  A
C4708      F4709   1.357       .  S
C4713      C4714   1.404       .  A
C4713      C4718   1.408       .  A
C4713      H4720   1.083   1_545  S
C4714      C4715   1.408       .  A
C4715      C4716   1.401       .  A
C4715      F4722   1.358       .  S
C4716      C4717   1.403       .  A
C4716      H4721   1.084       .  S
C4717      C4718   1.410       .  A
C4718      F4719   1.357   1_545  S
C4723      C4724   1.407       .  A
C4723      C4728   1.403       .  A
C4723      H4730   1.083       .  S
C4724      C4725   1.405       .  A
C4725      C4726   1.386       .  A
C4725      F4732   1.359       .  S
C4726      C4727   1.403       .  A
C4726      H4731   1.084       .  S
C4727      C4728   1.406       .  A
C4728      F4729   1.357       .  S
C4733      C4734   1.408       .  A
C4733      C4738   1.409       .  A
C4733      H4740   1.083       .  S
C4734      C4735   1.405       .  A
C4735      C4736   1.400       .  A
C4735      F4742   1.357       .  S
C4736      C4737   1.404       .  A
C4736      H4741   1.084       .  S
C4737      C4738   1.407       .  A
C4738      F4739   1.357       .  S
C4743      C4744   1.407       .  A
C4743      C4748   1.407       .  A
C4743      H4750   1.083       .  S
C4744      C4745   1.404       .  A
C4745      C4746   1.397       .  A
C4745      F4752   1.358       .  S
C4746      C4747   1.404       .  A
C4746      H4751   1.084       .  S
C4747      C4748   1.407       .  A
C4748      F4749   1.357       .  S
C4753      C4754   1.399       .  A
C4753      C4758   1.395       .  A
C4753      H4760   1.084       .  S
C4754      C4755   1.401       .  A
C4755      C4756   1.396       .  A
C4755      F4762   1.358       .  S
C4756      C4757   1.404       .  A
C4756      H4761   1.080       .  S
C4757      C4758   1.407       .  A
C4758      F4759   1.358       .  S
C4763      C4764   1.406       .  A
C4763      C4768   1.394       .  A
C4763      H4770   1.084       .  S
C4764      C4765   1.409       .  A
C4765      C4766   1.407       .  A
C4765      F4772   1.357       .  S
C4766      C4767   1.408       .  A
C4766      H4771   1.083       .  S
C4767      C4768   1.405       .  A
C4768      F4769   1.358       .  S
C4773      C4774   1.407       .  A
C4773      C4778   1.401   1_565  A
C4773      H4780   1.083       .  S
C4774      C4775   1.412       .  A
C4775      C4776   1.407       .  A
C4775      F4782   1.357       .  S
C4776      C4777   1.409   1_565  A
C4776      H4781   1.083       .  S
C4777      C4778   1.412       .  A
C4778      F4779   1.358       .  S
C4783      C4784   1.403       .  A
C4783      C4788   1.391       .  A
C4783      H4790   1.084       .  S
C4784      C4785   1.402       .  A
C4785      C4786   1.403       .  A
C4785      F4792   1.357       .  S
C4786      C4787   1.411       .  A
C4786      H4791   1.083       .  S
C4787      C4788   1.407       .  A
C4788      F4789   1.355       .  S
C4793      C4794   1.402       .  A
C4793      C4798   1.401       .  A
C4793      H4800   1.084       .  S
C4794      C4795   1.411       .  A
C4795      C4796   1.402       .  A
C4795      F4802   1.358       .  S
C4796      C4797   1.401       .  A
C4796      H4801   1.084       .  S
C4797      C4798   1.409       .  A
C4798      F4799   1.358       .  S
C4803      C4804   1.402       .  A
C4803      C4808   1.397       .  A
C4803      H4810   1.083       .  S
C4804      C4805   1.408       .  A
C4805      C4806   1.389       .  A
C4805      F4812   1.358       .  S
C4806      C4807   1.401       .  A
C4806      H4811   1.084       .  S
C4807      C4808   1.407       .  A
C4808      F4809   1.358       .  S
C4813      C4814   1.407       .  A
C4813      C4818   1.406       .  A
C4813      H4820   1.083       .  S
C4814      C4815   1.405       .  A
C4815      C4816   1.403       .  A
C4815      F4822   1.357       .  S
C4816      C4817   1.405       .  A
C4816      H4821   1.084       .  S
C4817      C4818   1.407       .  A
C4818      F4819   1.358       .  S
C4823      C4824   1.404       .  A
C4823      C4828   1.397       .  A
C4823      H4830   1.083       .  S
C4824      C4825   1.412   1_565  A
C4825      C4826   1.401       .  A
C4825      F4832   1.357       .  S
C4826      C4827   1.405   1_545  A
C4826      H4831   1.083       .  S
C4827      C4828   1.412       .  A
C4828      F4829   1.358       .  S
C4833      C4834   1.400       .  A
C4833      C4838   1.385       .  A
C4833      H4840   1.084       .  S
C4834      C4835   1.404       .  A
C4835      C4836   1.403   1_565  A
C4835      F4842   1.357   1_565  S
C4836      C4837   1.405   1_545  A
C4836      H4841   1.083       .  S
C4837      C4838   1.403       .  A
C4838      F4839   1.359       .  S
C4843      C4844   1.402       .  A
C4843      C4848   1.403       .  A
C4843      H4850   1.083       .  S
C4844      C4845   1.410       .  A
C4845      C4846   1.401       .  A
C4845      F4852   1.358       .  S
C4846      C4847   1.402       .  A
C4846      H4851   1.084       .  S
C4847      C4848   1.410       .  A
C4848      F4849   1.357       .  S
C4853      C4854   1.409       .  A
C4853      C4858   1.398       .  A
C4853      H4860   1.083       .  S
C4854      C4855   1.408       .  A
C4855      C4856   1.391       .  A
C4855      F4862   1.358       .  S
C4856      C4857   1.401       .  A
C4856      H4861   1.084       .  S
C4857      C4858   1.402       .  A
C4858      F4859   1.357       .  S
C4863      C4864   1.402       .  A
C4863      C4868   1.398       .  A
C4863      H4870   1.084       .  S
C4864      C4865   1.409       .  A
C4865      C4866   1.407       .  A
C4865      F4872   1.358       .  S
C4866      C4867   1.405       .  A
C4866      H4871   1.083       .  S
C4867      C4868   1.407       .  A
C4868      F4869   1.358       .  S
C4873      C4874   1.407       .  A
C4873      C4878   1.401       .  A
C4873      H4880   1.083       .  S
C4874      C4875   1.408       .  A
C4875      C4876   1.395       .  A
C4875      F4882   1.358       .  S
C4876      C4877   1.402       .  A
C4876      H4881   1.084       .  S
C4877      C4878   1.406       .  A
C4878      F4879   1.358       .  S
C4883      C4884   1.403       .  A
C4883      C4888   1.401       .  A
C4883      H4890   1.083       .  S
C4884      C4885   1.406   1_655  A
C4885      C4886   1.397       .  A
C4885      F4892   1.358       .  S
C4886      C4887   1.404       .  A
C4886      H4891   1.083       .  S
C4887      C4888   1.410   1_455  A
C4888      F4889   1.358       .  S
C4893      C4894   1.409   1_455  A
C4893      C4898   1.394       .  A
C4893      H4900   1.083       .  S
C4894      C4895   1.406       .  A
C4895      C4896   1.393       .  A
C4895      F4902   1.357       .  S
C4896      C4897   1.402   1_655  A
C4896      H4901   1.084       .  S
C4897      C4898   1.398       .  A
C4898      F4899   1.358       .  S
C4903      C4904   1.406       .  A
C4903      C4908   1.406       .  A
C4903      H4910   1.084       .  S
C4904      C4905   1.402       .  A
C4905      C4906   1.398       .  A
C4905      F4912   1.358       .  S
C4906      C4907   1.407       .  A
C4906      H4911   1.084       .  S
C4907      C4908   1.406       .  A
C4908      F4909   1.357       .  S
C4913      C4914   1.403       .  A
C4913      C4918   1.404       .  A
C4913      H4920   1.083       .  S
C4914      C4915   1.405       .  A
C4915      C4916   1.383       .  A
C4915      F4922   1.359       .  S
C4916      C4917   1.396       .  A
C4916      H4921   1.085       .  S
C4917      C4918   1.406       .  A
C4918      F4919   1.357       .  S
C4923      C4924   1.402       .  A
C4923      C4928   1.403       .  A
C4923      H4930   1.083       .  S
C4924      C4925   1.410       .  A
C4925      C4926   1.402       .  A
C4925      F4932   1.358       .  S
C4926      C4927   1.402       .  A
C4926      H4931   1.084       .  S
C4927      C4928   1.410       .  A
C4928      F4929   1.358       .  S
C4933      C4934   1.402       .  A
C4933      C4938   1.401   1_655  A
C4933      H4940   1.083       .  S
C4934      C4935   1.405       .  A
C4935      C4936   1.396   1_655  A
C4935      F4942   1.358       .  S
C4936      C4937   1.405       .  A
C4936      H4941   1.083       .  S
C4937      C4938   1.412       .  A
C4938      F4939   1.358       .  S
C4943      C4944   1.398       .  A
C4943      C4948   1.383       .  A
C4943      H4950   1.085       .  S
C4944      C4945   1.404       .  A
C4945      C4946   1.402       .  A
C4945      F4952   1.357       .  S
C4946      C4947   1.404       .  A
C4946      H4951   1.084       .  S
C4947      C4948   1.402       .  A
C4948      F4949   1.359       .  S
C4953      C4954   1.406       .  A
C4953      C4958   1.409       .  A
C4953      H4960   1.083       .  S
C4954      C4955   1.410       .  A
C4955      C4956   1.400       .  A
C4955      F4962   1.358       .  S
C4956      C4957   1.401       .  A
C4956      H4961   1.084       .  S
C4957      C4958   1.410       .  A
C4958      F4959   1.357       .  S
C4963      C4964   1.405       .  A
C4963      C4968   1.404       .  A
C4963      H4970   1.084       .  S
C4964      C4965   1.401       .  A
C4965      C4966   1.399       .  A
C4965      F4972   1.357       .  S
C4966      C4967   1.408       .  A
C4966      H4971   1.084       .  S
C4967      C4968   1.406       .  A
C4968      F4969   1.358       .  S
C4973      C4974   1.403       .  A
C4973      C4978   1.390       .  A
C4973      H4980   1.083       .  S
C4974      C4975   1.408       .  A
C4975      C4976   1.394       .  A
C4975      F4982   1.357       .  S
C4976      C4977   1.404       .  A
C4976      H4981   1.084       .  S
C4977      C4978   1.408       .  A
C4978      F4979   1.358       .  S
C4983      C4984   1.415       .  A
C4983      C4988   1.394       .  A
C4983      H4990   1.083       .  S
C4984      C4985   1.401       .  A
C4985      C4986   1.396       .  A
C4985      F4992   1.357       .  S
C4986      C4987   1.413       .  A
C4986      H4991   1.084       .  S
C4987      C4988   1.398       .  A
C4988      F4989   1.358       .  S
