geometry optimzed in LAMMPS
_audit_creation_date              2020-11-30 
_audit_creation_method            'lammps2cif' 
_symmetry_space_group_name_H-M    'P1' 
_symmetry_Int_Tables_number       1 
_symmetry_cell_setting            triclinic 
loop_ 
_symmetry_equiv_pos_as_xyz 
  x,y,z 
_cell_length_a                    33.96250479 
_cell_length_b                    59.22084437302662 
_cell_length_c                    131.6557711527144 
_cell_angle_alpha                 89.80084342836773 
_cell_angle_beta                  89.98728231749605 
_cell_angle_gamma                 89.97068188966134 
loop_ 
_atom_site_label 
_atom_site_type_symbol 
_atom_site_fract_x 
_atom_site_fract_y 
_atom_site_fract_z 
_atom_site_charge 
O1          O  0.14917786  0.52188868  0.33670237    -0.80700
O2          O  0.10769805  0.51355857  0.29105825    -0.65400
O3          O  0.12359595  0.49965831  0.31937930    -1.12000
C4          C  0.25845388  0.49748776  0.30905760     1.06200
O5          O  0.14398797  0.48362667  0.28854820    -0.78600
O6          O  0.19172293  0.46129562  0.30046055    -0.66200
Ni7        Ni  0.09989289  0.51616004  0.33000090     1.34900
C8          C  0.18369708  0.45410107  0.30926268     0.84900
O9          O  0.05709286  0.50756744  0.30709669    -0.79100
O10         O  0.04897511  0.51173876  0.32404324    -0.89400
C11         C  0.12246801  0.49911438  0.28500270     0.84500
O12         O  0.10330014  0.54510441  0.32399371    -0.67600
O13         O  0.24498806  0.49559521  0.30004246    -0.86900
C14         C  0.10772251  0.55273169  0.31506732     0.85300
C15         C  0.03550529  0.50943115  0.31504920     1.06900
H16         H  0.17932992  0.52291043  0.30397186     0.38700
O17         O  0.17026730  0.50756148  0.30486245    -1.09500
O18         O  0.17799006  0.46694351  0.31681456    -0.66200
Ni19       Ni  0.18006700  0.49922062  0.31864511     1.26300
O20         O  0.11333940  0.54022799  0.30734869    -0.66400
O21         O  0.23679049  0.49874420  0.31702398    -0.78700
C22         C  0.17277462  0.50642947  0.33942523     0.84700
O23         O  0.18634624  0.49269422  0.33290623    -0.65900
Ni24       Ni  0.19390822  0.49030299  0.29443044     1.27400
Ni25       Ni  0.11366624  0.50772572  0.30551990     1.26100
H26         H  0.11438320  0.48433611  0.32022971     0.39300
O27         O  0.64167796  0.52467244  0.33733852    -0.80700
O28         O  0.60618216  0.51248405  0.29139752    -0.65400
O29         O  0.62409818  0.50088361  0.31984874    -1.12000
C30         C  0.75845703  0.51081235  0.30995277     1.06200
O31         O  0.65090256  0.48640552  0.28926593    -0.78600
O32         O  0.70554160  0.46944250  0.30138791    -0.66200
Ni33       Ni  0.59529448  0.51471767  0.33039012     1.34900
C34         C  0.69842104  0.46154327  0.31013274     0.84900
O35         O  0.55683934  0.50218081  0.30732113    -0.79100
O36         O  0.54710783  0.50541993  0.32425051    -0.89400
C37         C  0.62577429  0.49969038  0.28548033     0.84500
O38         O  0.59027219  0.54362997  0.32430401    -0.67600
O39         O  0.74609793  0.50856104  0.30085714    -0.86900
C40         C  0.59292444  0.55151735  0.31536037     0.85300
C41         C  0.53482375  0.50178972  0.31524693     1.06900
H42         H  0.67336876  0.52883113  0.30459318     0.38700
O43         O  0.66878258  0.51284159  0.30547408    -1.09500
O44         O  0.68642235  0.47355226  0.31746891    -0.66200
Ni45       Ni  0.67998798  0.50561264  0.31928348     1.26300
O46         O  0.60334340  0.53976665  0.30771606    -0.66400
O47         O  0.73626315  0.50992348  0.31783471    -0.78700
C48         C  0.66844601  0.51108913  0.34013820     0.84700
O49         O  0.68733726  0.49977032  0.33355399    -0.65900
Ni50       Ni  0.69783010  0.49805741  0.29517881     1.27400
Ni51       Ni  0.61282317  0.50766889  0.30593424     1.26100
H52         H  0.61929350  0.48492341  0.32069001     0.39300
O53         O  0.24303180  0.51613673  0.41211098    -0.80700
O54         O  0.28558168  0.50884472  0.45801886    -0.65400
O55         O  0.26850468  0.49422266  0.42982587    -1.12000
C56         C  0.13423051  0.49556456  0.44074677     1.06200
O57         O  0.24890132  0.47920919  0.46062571    -0.78600
O58         O  0.19785853  0.45751643  0.44937377    -0.66200
Ni59       Ni  0.29215288  0.51058894  0.41903894     1.34900
C60         C  0.20546226  0.44971812  0.44067617     0.84900
O61         O  0.33547778  0.50213499  0.44195543    -0.79100
O62         O  0.34328074  0.50646332  0.42501290    -0.89400
C63         C  0.26991553  0.49484022  0.46417000     0.84500
O64         O  0.28805244  0.53972137  0.42481063    -0.67600
O65         O  0.14794255  0.49342114  0.44972949    -0.86900
C66         C  0.28383122  0.54751219  0.43369692     0.85300
C67         C  0.35691616  0.50404052  0.43398946     1.06900
H68         H  0.21416888  0.51854800  0.44515452     0.38700
O69         O  0.22271389  0.50307292  0.44441405    -1.09500
O70         O  0.21256533  0.46212649  0.43298960    -0.66200
Ni71       Ni  0.21207625  0.49450575  0.43079501     1.26300
O72         O  0.27943671  0.53509831  0.44152906    -0.66400
O73         O  0.15544035  0.49540607  0.43266197    -0.78700
C74         C  0.21725763  0.50142110  0.40993274     0.84700
O75         O  0.20464631  0.48774820  0.41663888    -0.65900
Ni76       Ni  0.19883355  0.48674983  0.45511025     1.27400
Ni77       Ni  0.27911340  0.50265505  0.44361939     1.26100
H78         H  0.27718968  0.47879762  0.42905354     0.39300
O79         O  0.75634402  0.50707633  0.41078322    -0.80700
O80         O  0.78276204  0.50636397  0.45899654    -0.65400
O81         O  0.76778279  0.49210395  0.43077527    -1.12000
C82         C  0.63299315  0.50564737  0.44026399     1.06200
O83         O  0.73833211  0.48020288  0.46138656    -0.78600
O84         O  0.68227751  0.46363500  0.44968861    -0.66200
Ni85       Ni  0.79763874  0.50745414  0.42067294     1.34900
C86         C  0.69065774  0.45480403  0.44123878     0.84900
O87         O  0.83323241  0.49395500  0.44413801    -0.79100
O88         O  0.84446936  0.50849869  0.42874798    -0.89400
C89         C  0.76351077  0.49362516  0.46498269     0.84500
O90         O  0.78118805  0.53624762  0.42531688    -0.67600
O91         O  0.64461807  0.50382998  0.44945251    -0.86900
C92         C  0.78465503  0.54439505  0.43418806     0.85300
C93         C  0.85651607  0.50052080  0.43714657     1.06900
H94         H  0.71796688  0.52198692  0.44533038     0.38700
O95         O  0.72216838  0.50590089  0.44480050    -1.09500
O96         O  0.70417703  0.46594456  0.43377311    -0.66200
Ni97       Ni  0.71156130  0.49767214  0.43121969     1.26300
O98         O  0.78741657  0.53209688  0.44215820    -0.66400
O99         O  0.65548479  0.50314382  0.43251619    -0.78700
C100        C  0.72321445  0.49746831  0.40978363     0.84700
O101        O  0.70285307  0.49052991  0.41724573    -0.65900
Ni102      Ni  0.69207234  0.49248489  0.45533036     1.27400
Ni103      Ni  0.77758933  0.50009603  0.44471086     1.26100
H104        H  0.77281726  0.47613840  0.43000644     0.39300
O105        O  0.47731355  0.73295808  0.33647783    -0.80700
O106        O  0.51686849  0.74229571  0.29127607    -0.65400
O107        O  0.50338447  0.75654783  0.31950026    -1.12000
C108        C  0.36895092  0.76292841  0.30979501     1.06200
O109        O  0.48359134  0.77329506  0.28851308    -0.78600
O110        O  0.44261459  0.79764818  0.30123335    -0.66200
Ni111      Ni  0.52677090  0.73919405  0.32993512     1.34900
C112        C  0.44875246  0.80389907  0.31026279     0.84900
O113        O  0.56902984  0.74706077  0.30705353    -0.79100
O114        O  0.57752085  0.74459460  0.32406206    -0.89400
C115        C  0.50239389  0.75658109  0.28509492     0.84500
O116        O  0.52396176  0.71035915  0.32368919    -0.67600
O117        O  0.38250631  0.76696429  0.30092434    -0.86900
C118        C  0.51614533  0.70323265  0.31484883     0.85300
C119        C  0.59084284  0.74633449  0.31501582     1.06900
H120        H  0.44500301  0.73558026  0.30393915     0.38700
O121        O  0.45562857  0.75051702  0.30505919    -1.09500
O122        O  0.45017256  0.79035377  0.31773724    -0.66200
Ni123      Ni  0.44701552  0.75788798  0.31899556     1.26300
O124        O  0.50890513  0.71621492  0.30737941    -0.66400
O125        O  0.39047451  0.75910788  0.31760489    -0.78700
C126        C  0.45465769  0.74851737  0.33955556     0.84700
O127        O  0.44173235  0.76319229  0.33334193    -0.65900
Ni128      Ni  0.43368606  0.76951710  0.29492469     1.27400
Ni129      Ni  0.51217378  0.74855730  0.30562779     1.26100
H130        H  0.51342413  0.77169036  0.32034472     0.39300
O131        O  0.98258770  0.73265878  0.33709697    -0.80700
O132        O  0.02146147  0.74310174  0.29168959    -0.65400
O133        O  0.00311246  0.75654957  0.31982681    -1.12000
C134        C  0.86836296  0.74807715  0.30975330     1.06200
O135        O  0.97831523  0.76983769  0.28904023    -0.78600
O136        O  0.92483730  0.78867480  0.30081641    -0.66200
Ni137      Ni  0.03025172  0.74224827  0.33054299     1.34900
C138        C  0.93222866  0.79688138  0.30946779     0.84900
O139        O  0.07085067  0.75315211  0.30760201    -0.79100
O140        O  0.07941008  0.75083304  0.32462965    -0.89400
C141        C  0.00250620  0.75567379  0.28553186     0.84500
O142        O  0.03528043  0.71321074  0.32471993    -0.67600
O143        O  0.88107585  0.75014686  0.30066164    -0.86900
C144        C  0.03193258  0.70514722  0.31586378     0.85300
C145        C  0.09247990  0.75346285  0.31560567     1.06900
H146        H  0.95271110  0.72895293  0.30483313     0.38700
O147        O  0.95823251  0.74487895  0.30551101    -1.09500
O148        O  0.94253484  0.78499152  0.31703600    -0.66200
Ni149      Ni  0.94700239  0.75294779  0.31918835     1.26300
O150        O  0.02171998  0.71682692  0.30817082    -0.66400
O151        O  0.89035710  0.74948102  0.31766736    -0.78700
C152        C  0.95599064  0.74637213  0.33984794     0.84700
O153        O  0.93981499  0.75935112  0.33338307    -0.65900
Ni154      Ni  0.93033102  0.75959417  0.29497272     1.27400
Ni155      Ni  0.01452973  0.74892917  0.30607000     1.26100
H156        H  0.00897978  0.77240272  0.32053090     0.39300
O157        O  0.39098887  0.73179547  0.41309720    -0.80700
O158        O  0.35247339  0.74035138  0.45890299    -0.65400
O159        O  0.36896386  0.75446060  0.43068426    -1.12000
C160        C  0.50384409  0.75121714  0.44081436     1.06200
O161        O  0.39182529  0.76891646  0.46172776    -0.78600
O162        O  0.44168339  0.78953741  0.44958504    -0.66200
Ni163      Ni  0.34285334  0.73952229  0.42000213     1.34900
C164        C  0.43433865  0.79726163  0.44082932     0.84900
O165        O  0.30204273  0.74837444  0.44309613    -0.79100
O166        O  0.29299401  0.74632291  0.42610282    -0.89400
C167        C  0.36828200  0.75417262  0.46506856     0.84500
O168        O  0.34198651  0.71028243  0.42587559    -0.67600
O169        O  0.49062707  0.75339063  0.44983379    -0.86900
C170        C  0.34629217  0.70211548  0.43471790     0.85300
C171        C  0.28010099  0.74829373  0.43517394     1.06900
H172        H  0.42237672  0.72879688  0.44587361     0.38700
O173        O  0.41497397  0.74445772  0.44506871    -1.09500
O174        O  0.42687832  0.78489534  0.43323058    -0.66200
Ni175      Ni  0.42532139  0.75268409  0.43129430     1.26300
O176        O  0.35486233  0.71398340  0.44245996    -0.66400
O177        O  0.48210025  0.75096771  0.43283387    -0.78700
C178        C  0.41666152  0.74624781  0.41047578     0.84700
O179        O  0.43184301  0.75927182  0.41704727    -0.65900
Ni180      Ni  0.44058509  0.76049384  0.45557441     1.27400
Ni181      Ni  0.35858183  0.74632495  0.44450529     1.26100
H182        H  0.36155761  0.77012781  0.42998760     0.39300
O183        O  0.89066466  0.73042678  0.41266613    -0.80700
O184        O  0.85258130  0.73875890  0.45881218    -0.65400
O185        O  0.86945687  0.75203533  0.43056515    -1.12000
C186        C  0.00400114  0.74239511  0.44050827     1.06200
O187        O  0.89672857  0.76520527  0.46113412    -0.78600
O188        O  0.95352616  0.78194061  0.44966625    -0.66200
Ni189      Ni  0.84282560  0.73781021  0.41981687     1.34900
C190        C  0.94261276  0.79141200  0.44151529     0.84900
O191        O  0.80256893  0.74888582  0.44303946    -0.79100
O192        O  0.79341544  0.74452162  0.42613712    -0.89400
C193        C  0.87103418  0.75206073  0.46475027     0.84500
O194        O  0.84199079  0.70826095  0.42538366    -0.67600
O195        O  0.99120752  0.74175671  0.44962608    -0.86900
C196        C  0.84392813  0.70005141  0.43427543     0.85300
C197        C  0.78065125  0.74820268  0.43511133     1.06900
H198        H  0.91979767  0.72353618  0.44508258     0.38700
O199        O  0.91461355  0.73955275  0.44470701    -1.09500
O200        O  0.92829150  0.78068322  0.43408133    -0.66200
Ni201      Ni  0.92545702  0.74895682  0.43122128     1.26300
O202        O  0.85067076  0.71191859  0.44216814    -0.66400
O203        O  0.98213770  0.74607380  0.43271669    -0.78700
C204        C  0.91720039  0.74471101  0.41042439     0.84700
O205        O  0.93248079  0.75703241  0.41723129    -0.65900
Ni206      Ni  0.94346449  0.75298506  0.45532819     1.27400
Ni207      Ni  0.85866075  0.74411040  0.44434677     1.26100
H208        H  0.86306599  0.76786386  0.42987067     0.39300
O209        O  0.24268408  0.24271220  0.34060000    -0.80700
O210        O  0.26912850  0.24359173  0.29230298    -0.65400
O211        O  0.25473001  0.25669528  0.32066161    -1.12000
C212        C  0.11902269  0.24557760  0.31131937     1.06200
O213        O  0.22396312  0.26948587  0.28966553    -0.78600
O214        O  0.16900011  0.28628796  0.30178709    -0.66200
Ni215      Ni  0.28276207  0.23942768  0.33046917     1.34900
C216        C  0.17913051  0.29545098  0.31005408     0.84900
O217        O  0.31983667  0.25427588  0.30758467    -0.79100
O218        O  0.32851689  0.23529860  0.32207457    -0.89400
C219        C  0.25052075  0.25660554  0.28625170     0.84500
O220        O  0.25988151  0.21230753  0.32560584    -0.67600
O221        O  0.13077962  0.24616521  0.30211743    -0.86900
C222        C  0.26579989  0.20429548  0.31679288     0.85300
C223        C  0.34208390  0.24517444  0.31424220     1.06900
H224        H  0.20354791  0.22797456  0.30612749     0.38700
O225        O  0.20833929  0.24402295  0.30657382    -1.09500
O226        O  0.19323753  0.28444289  0.31749014    -0.66200
Ni227      Ni  0.19818725  0.25257401  0.32015434     1.26300
O228        O  0.27224769  0.21682118  0.30903081    -0.66400
O229        O  0.14169922  0.24854547  0.31897713    -0.78700
C230        C  0.21019083  0.25310781  0.34150856     0.84700
O231        O  0.19006113  0.26007762  0.33403244    -0.65900
Ni232      Ni  0.17809702  0.25734114  0.29607446     1.27400
Ni233      Ni  0.26395542  0.24910248  0.30670383     1.26100
H234        H  0.26115234  0.27243446  0.32166838     0.39300
O235        O  0.72864965  0.23595367  0.33760340    -0.80700
O236        O  0.77094788  0.24438894  0.29262860    -0.65400
O237        O  0.75356152  0.25923012  0.32060072    -1.12000
C238        C  0.61906648  0.25888753  0.31017148     1.06200
O239        O  0.73366617  0.27371663  0.28936825    -0.78600
O240        O  0.68799961  0.29662665  0.30142682    -0.66200
Ni241      Ni  0.77802839  0.24352054  0.33137365     1.34900
C242        C  0.69462072  0.30368781  0.31030528     0.84900
O243        O  0.82083629  0.25138070  0.30867413    -0.79100
O244        O  0.82888361  0.24991562  0.32573129    -0.89400
C245        C  0.75591484  0.25810971  0.28626535     0.84500
O246        O  0.77954501  0.21445196  0.32547673    -0.67600
O247        O  0.63277290  0.26278055  0.30130124    -0.86900
C248        C  0.77441457  0.20646770  0.31666912     0.85300
C249        C  0.84241256  0.25110482  0.31668720     1.06900
H250        H  0.69910829  0.23500409  0.30511042     0.38700
O251        O  0.70769221  0.25041533  0.30603467    -1.09500
O252        O  0.69733588  0.29077983  0.31797981    -0.66200
Ni253      Ni  0.69714072  0.25839864  0.31978516     1.26300
O254        O  0.76486995  0.21846352  0.30902331    -0.66400
O255        O  0.64049093  0.25706245  0.31814902    -0.78700
C256        C  0.70411541  0.25083823  0.34037254     0.84700
O257        O  0.69016598  0.26469869  0.33395776    -0.65900
Ni258      Ni  0.68391468  0.26764622  0.29554506     1.27400
Ni259      Ni  0.76420313  0.25082714  0.30690934     1.26100
H260        H  0.76184722  0.27474335  0.32130047     0.39300
O261        O  0.13039726  0.23232532  0.41364303    -0.80700
O262        O  0.10027531  0.23983774  0.45963230    -0.65400
O263        O  0.11618231  0.25431485  0.43159043    -1.12000
C264        C  0.25091570  0.23953826  0.44032256     1.06200
O265        O  0.14697092  0.26486117  0.46210431    -0.78600
O266        O  0.20276127  0.28135342  0.45022229    -0.66200
Ni267      Ni  0.08532180  0.24261315  0.42095349     1.34900
C268        C  0.19414740  0.29074791  0.44186958     0.84900
O269        O  0.04971800  0.25247860  0.44448215    -0.79100
O270        O  0.03849865  0.25241791  0.42757059    -0.89400
C271        C  0.11982493  0.25245497  0.46560203     0.84500
O272        O  0.07844726  0.21302530  0.42625972    -0.67600
O273        O  0.23924914  0.24061643  0.44954222    -0.86900
C274        C  0.08287795  0.20378466  0.43489209     0.85300
C275        C  0.02704185  0.25458691  0.43673689     1.06900
H276        H  0.16504401  0.22338487  0.44571339     0.38700
O277        O  0.16137009  0.23969671  0.44529670    -1.09500
O278        O  0.18024834  0.28003891  0.43435170    -0.66200
Ni279      Ni  0.17188594  0.24840675  0.43170560     1.26300
O280        O  0.09474503  0.21438635  0.44273136    -0.66400
O281        O  0.22824041  0.24270167  0.43263985    -0.78700
C282        C  0.15791070  0.24553345  0.41101651     0.84700
O283        O  0.17813352  0.25580042  0.41766121    -0.65900
Ni284      Ni  0.19243072  0.25224329  0.45572350     1.27400
Ni285      Ni  0.10573810  0.24601210  0.44529959     1.26100
H286        H  0.11227949  0.27065958  0.43120843     0.39300
O287        O  0.64509630  0.22940553  0.41360787    -0.80700
O288        O  0.59861698  0.23753463  0.45877614    -0.65400
O289        O  0.61612455  0.25121210  0.43055213    -1.12000
C290        C  0.75036999  0.25409142  0.44162564     1.06200
O291        O  0.63465878  0.26744314  0.46145006    -0.78600
O292        O  0.68449917  0.28957501  0.44998259    -0.66200
Ni293      Ni  0.59463867  0.23386328  0.41990366     1.34900
C294        C  0.67495927  0.29707656  0.44133146     0.84900
O295        O  0.54882969  0.24279148  0.44242215    -0.79100
O296        O  0.54272331  0.23747470  0.42547749    -0.89400
C297        C  0.61345717  0.25174421  0.46491982     0.84500
O298        O  0.59992932  0.20499493  0.42605568    -0.67600
O299        O  0.73631498  0.25466486  0.45061516    -0.86900
C300        C  0.60383267  0.19792583  0.43509779     0.85300
C301        C  0.52812808  0.24038453  0.43432913     1.06900
H302        H  0.67132634  0.22850164  0.44605208     0.38700
O303        O  0.66200763  0.24377592  0.44527752    -1.09500
O304        O  0.66820164  0.28460157  0.43373200    -0.66200
Ni305      Ni  0.67247484  0.25261571  0.43163008     1.26300
O306        O  0.60669898  0.21090344  0.44272471    -0.66400
O307        O  0.72919075  0.25408923  0.43354136    -0.78700
C308        C  0.66724396  0.24562420  0.41095363     0.84700
O309        O  0.67923808  0.25973182  0.41749040    -0.65900
Ni310      Ni  0.68503279  0.26048523  0.45593228     1.27400
Ni311      Ni  0.60539749  0.24328201  0.44435555     1.26100
H312        H  0.60612606  0.26630604  0.42954106     0.39300
O313        O  0.37491895  0.02366322  0.33898363    -0.80700
O314        O  0.33536197  0.01060569  0.29362682    -0.65400
O315        O  0.35776426  0.99915667  0.32179165    -1.12000
C316        C  0.49000719  0.01168188  0.31030417     1.06200
O317        O  0.37996524  0.98457235  0.29096393    -0.78600
O318        O  0.43718512  0.96910135  0.30269796    -0.66200
Ni319      Ni  0.32870250  0.01201360  0.33257275     1.34900
C320        C  0.43251696  0.96126358  0.31156080     0.84900
O321        O  0.28854030  0.00023566  0.30991565    -0.79100
O322        O  0.28029509  0.00132331  0.32692900    -0.89400
C323        C  0.35320706  0.99734579  0.28755628     0.84500
O324        O  0.32035587  0.04079089  0.32661280    -0.67600
O325        O  0.47614991  0.00867146  0.30139059    -0.86900
C326        C  0.32456876  0.04916892  0.31780686     0.85300
C327        C  0.26715274  0.99889969  0.31792295     1.06900
H328        H  0.40351756  0.02757606  0.30589212     0.38700
O329        O  0.39966397  0.01157540  0.30692448    -1.09500
O330        O  0.42180734  0.97319989  0.31905531    -0.66200
Ni331      Ni  0.41336661  0.00522976  0.32061450     1.26300
O332        O  0.33537682  0.03778679  0.31009443    -0.66400
O333        O  0.46919483  0.01079473  0.31845721    -0.78700
C334        C  0.40435088  0.01172012  0.34146365     0.84700
O335        O  0.42331423  0.00060632  0.33482057    -0.65900
Ni336      Ni  0.42735422  0.99719927  0.29634001     1.27400
Ni337      Ni  0.34423060  0.00584043  0.30803651     1.26100
H338        H  0.35426625  0.98307704  0.32260334     0.39300
O339        O  0.88046710  0.02157013  0.33858494    -0.80700
O340        O  0.83980220  0.01265035  0.29239625    -0.65400
O341        O  0.85529640  0.00006836  0.32082750    -1.12000
C342        C  0.99081764  0.00056871  0.31052419     1.06200
O343        O  0.87822272  0.98347695  0.29044799    -0.78600
O344        O  0.93055648  0.96348700  0.30192067    -0.66200
Ni345      Ni  0.83180805  0.01745268  0.33121858     1.34900
C346        C  0.91966608  0.95540624  0.31035349     0.84900
O347        O  0.78889910  0.00639720  0.30823003    -0.79100
O348        O  0.78107691  0.01449295  0.32485158    -0.89400
C349        C  0.85597472  0.99821994  0.28660081     0.84500
O350        O  0.83956217  0.04616204  0.32512296    -0.67600
O351        O  0.97786141  0.00014741  0.30141399    -0.86900
C352        C  0.84160890  0.05309720  0.31601849     0.85300
C353        C  0.76734996  0.01019796  0.31602648     1.06900
H354        H  0.91027791  0.02411407  0.30571108     0.38700
O355        O  0.90209299  0.00851704  0.30640219    -1.09500
O356        O  0.90965365  0.96753195  0.31785218    -0.66200
Ni357      Ni  0.91173965  0.99973823  0.32006312     1.26300
O358        O  0.84346028  0.03999465  0.30839741    -0.66400
O359        O  0.96868274  0.99958418  0.31843603    -0.78700
C360        C  0.90497084  0.00617494  0.34091418     0.84700
O361        O  0.91787016  0.99263162  0.33422906    -0.65900
Ni362      Ni  0.92757854  0.99245115  0.29593809     1.27400
Ni363      Ni  0.84548520  0.00750639  0.30687229     1.26100
H364        H  0.84602391  0.98470895  0.32187531     0.39300
O365        O  0.49659328  0.01763696  0.41355698    -0.80700
O366        O  0.52777451  0.00454537  0.45962428    -0.65400
O367        O  0.51074377  0.99358775  0.43126995    -1.12000
C368        C  0.37656574  0.00675717  0.44098415     1.06200
O369        O  0.48190721  0.97905668  0.46143907    -0.78600
O370        O  0.42601786  0.96425713  0.44945603    -0.66200
Ni371      Ni  0.54152879  0.00670066  0.42088732     1.34900
C372        C  0.43433027  0.95589440  0.44090346     0.84900
O373        O  0.57749786  0.99345196  0.44415604    -0.79100
O374        O  0.58884650  0.99659349  0.42732605    -0.89400
C375        C  0.50734053  0.99181433  0.46536389     0.84500
O376        O  0.54738354  0.03554099  0.42689587    -0.67600
O377        O  0.38873345  0.00445654  0.45009773    -0.86900
C378        C  0.54384542  0.04352690  0.43577549     0.85300
C379        C  0.60028830  0.99288533  0.43640300     1.06900
H380        H  0.46263971  0.02240702  0.44634143     0.38700
O381        O  0.46622210  0.00635111  0.44549631    -1.09500
O382        O  0.44690871  0.96754565  0.43348154    -0.66200
Ni383      Ni  0.45499619  0.99960639  0.43174468     1.26300
O384        O  0.53277518  0.03186840  0.44341034    -0.66400
O385        O  0.39878135  0.00504983  0.43312327    -0.78700
C386        C  0.46684087  0.00598182  0.41104194     0.84700
O387        O  0.44750254  0.99468512  0.41755487    -0.65900
Ni388      Ni  0.43592153  0.99231427  0.45572439     1.27400
Ni389      Ni  0.52175311  0.99997273  0.44519332     1.26100
H390        H  0.51451211  0.97756329  0.43047435     0.39300
O391        O  0.98710588  0.01797473  0.41356641    -0.80700
O392        O  0.02630382  0.00839322  0.45986011    -0.65400
O393        O  0.01198022  0.99600080  0.43134312    -1.12000
C394        C  0.87703459  0.99252879  0.44167422     1.06200
O395        O  0.99131205  0.97788891  0.46196139    -0.78600
O396        O  0.94302343  0.95642842  0.44992929    -0.66200
Ni397      Ni  0.03546214  0.01367096  0.42097455     1.34900
C398        C  0.95189659  0.94960213  0.44115076     0.84900
O399        O  0.07767629  0.00352363  0.44407083    -0.79100
O400        O  0.08602100  0.01076519  0.42737357    -0.89400
C401        C  0.01168972  0.99350618  0.46575183     0.84500
O402        O  0.02702249  0.04213428  0.42706747    -0.67600
O403        O  0.89029873  0.99068980  0.45071027    -0.86900
C404        C  0.02271649  0.04907998  0.43608305     0.85300
C405        C  0.09939341  0.00695085  0.43627407     1.06900
H406        H  0.95524909  0.01796266  0.44682685     0.38700
O407        O  0.96471060  0.00273110  0.44587236    -1.09500
O408        O  0.95856903  0.96268188  0.43370009    -0.66200
Ni409      Ni  0.95551049  0.99497369  0.43203585     1.26300
O410        O  0.02030838  0.03596559  0.44375918    -0.66400
O411        O  0.89879860  0.99386305  0.43370485    -0.78700
C412        C  0.96251965  0.00282289  0.41110850     0.84700
O413        O  0.94943906  0.98898418  0.41770685    -0.65900
Ni414      Ni  0.94130055  0.98497272  0.45622405     1.27400
Ni415      Ni  0.02115376  0.00332651  0.44535456     1.26100
H416        H  0.02176647  0.98084857  0.43033973     0.39300
O417        O  0.25985074  0.52189544  0.53851478    -0.80700
O418        O  0.29880271  0.51435962  0.58189075    -0.65400
O419        O  0.28116578  0.49643008  0.55467540    -1.12000
C420        C  0.14711889  0.49741707  0.56387401     1.06200
O421        O  0.25613885  0.48924590  0.58786897    -0.78600
O422        O  0.22259739  0.46187712  0.57401680    -0.66200
Ni423      Ni  0.30817815  0.51134714  0.54403796     1.34900
C424        C  0.22116415  0.45440423  0.56499687     0.84900
O425        O  0.34841271  0.50424751  0.56650569    -0.79100
O426        O  0.35728703  0.50177206  0.54953286    -0.89400
C427        C  0.28241036  0.50417075  0.58921322     0.84500
O428        O  0.31496731  0.54049384  0.54967841    -0.67600
O429        O  0.16063756  0.49135351  0.57247873    -0.86900
C430        C  0.30331165  0.54917526  0.55789651     0.85300
C431        C  0.37026709  0.50165859  0.55862832     1.06900
H432        H  0.22696480  0.52282958  0.56987879     0.38700
O433        O  0.23501449  0.50731997  0.56898286    -1.09500
O434        O  0.21963156  0.46715064  0.55718453    -0.66200
Ni435      Ni  0.22493310  0.49948149  0.55509855     1.26300
O436        O  0.29133418  0.53760066  0.56536824    -0.66400
O437        O  0.16876758  0.50270333  0.55629460    -0.78700
C438        C  0.23679216  0.50751694  0.53477035     0.84700
O439        O  0.21919245  0.49383258  0.54070088    -0.65900
Ni440      Ni  0.21001611  0.49066016  0.57946556     1.27400
Ni441      Ni  0.29152147  0.50578562  0.56812647     1.26100
H442        H  0.28783469  0.48060416  0.55421236     0.39300
O443        O  0.75727162  0.51932336  0.53869523    -0.80700
O444        O  0.79786912  0.50979437  0.58261793    -0.65400
O445        O  0.78161556  0.49463932  0.55484675    -1.12000
C446        C  0.64681569  0.49776369  0.56485816     1.06200
O447        O  0.75898953  0.48104500  0.58616928    -0.78600
O448        O  0.70830236  0.45960005  0.57392035    -0.66200
Ni449      Ni  0.80670224  0.51051979  0.54426711     1.34900
C450        C  0.71382258  0.45143253  0.56515105     0.84900
O451        O  0.84860012  0.50203508  0.56684903    -0.79100
O452        O  0.85682813  0.50281307  0.54978018    -0.89400
C453        C  0.78357836  0.49587882  0.58898439     0.84500
O454        O  0.80991084  0.53957415  0.55005738    -0.67600
O455        O  0.65988930  0.49588675  0.57392428    -0.86900
C456        C  0.80121935  0.54776893  0.55861145     0.85300
C457        C  0.87017709  0.50132059  0.55882994     1.06900
H458        H  0.72729930  0.51985994  0.56978491     0.38700
O459        O  0.73534453  0.50429018  0.56912296    -1.09500
O460        O  0.72297566  0.46346444  0.55747417    -0.66200
Ni461      Ni  0.72517909  0.49594132  0.55544111     1.26300
O462        O  0.79206325  0.53567903  0.56624675    -0.66400
O463        O  0.66859776  0.49751556  0.55690103    -0.78700
C464        C  0.73465836  0.50438432  0.53518183     0.84700
O465        O  0.71914363  0.49008106  0.54117497    -0.65900
Ni466      Ni  0.71004326  0.48882818  0.57977301     1.27400
Ni467      Ni  0.79172220  0.50329190  0.56844941     1.26100
H468        H  0.78952180  0.47903628  0.55418204     0.39300
O469        O  0.34475707  0.51583423  0.70902534    -0.80700
O470        O  0.31237912  0.50462658  0.66509411    -0.65400
O471        O  0.33014299  0.48926083  0.69276361    -1.12000
C472        C  0.46424233  0.50089596  0.68370185     1.06200
O473        O  0.35770989  0.47951536  0.66130013    -0.78600
O474        O  0.40735786  0.45937674  0.67417614    -0.66200
Ni475      Ni  0.29943807  0.50227356  0.70313775     1.34900
C476        C  0.40598850  0.45157530  0.68314741     0.84900
O477        O  0.26259671  0.49293362  0.68041427    -0.79100
O478        O  0.25291765  0.48978684  0.69734454    -0.89400
C479        C  0.33181789  0.49364551  0.65853405     0.84500
O480        O  0.28716846  0.53063226  0.69719402    -0.67600
O481        O  0.45273300  0.49676169  0.67467549    -0.86900
C482        C  0.29638950  0.54001496  0.68888794     0.85300
C483        C  0.24048220  0.48956673  0.68819670     1.06900
H484        H  0.37992134  0.51845830  0.67788766     0.38700
O485        O  0.37514179  0.50247300  0.67870917    -1.09500
O486        O  0.39712813  0.46352084  0.69085540    -0.66200
Ni487      Ni  0.38577086  0.49548760  0.69256173     1.26300
O488        O  0.31245001  0.52947500  0.68160617    -0.66400
O489        O  0.44141372  0.50164740  0.69144994    -0.78700
C490        C  0.37142919  0.50353537  0.71278160     0.84700
O491        O  0.39173299  0.49090170  0.70698683    -0.65900
Ni492      Ni  0.40431813  0.48852510  0.66829799     1.27400
Ni493      Ni  0.31914867  0.49759084  0.67915568     1.26100
H494        H  0.32647437  0.47310112  0.69328851     0.39300
O495        O  0.85170652  0.51249409  0.71026998    -0.80700
O496        O  0.81419734  0.50719440  0.66593160    -0.65400
O497        O  0.82827323  0.48927271  0.69354481    -1.12000
C498        C  0.96323341  0.48942784  0.68383503     1.06200
O499        O  0.85013393  0.47754123  0.66203459    -0.78600
O500        O  0.89639637  0.45332588  0.67426060    -0.66200
Ni501      Ni  0.80270115  0.50455034  0.70420819     1.34900
C502        C  0.89172056  0.44517800  0.68308267     0.84900
O503        O  0.76263431  0.49930385  0.68135420    -0.79100
O504        O  0.75277150  0.49772198  0.69833244    -0.89400
C505        C  0.82722951  0.49339843  0.65938420     0.84500
O506        O  0.80072347  0.53415996  0.69874076    -0.67600
O507        O  0.95005096  0.48724272  0.67480342    -0.86900
C508        C  0.81090184  0.54295921  0.69037914     0.85300
C509        C  0.74028009  0.49787409  0.68918585     1.06900
H510        H  0.88496000  0.51416729  0.67883110     0.38700
O511        O  0.87569095  0.49881535  0.67945739    -1.09500
O512        O  0.88595299  0.45731171  0.69092331    -0.66200
Ni513      Ni  0.88480453  0.48975152  0.69316887     1.26300
O514        O  0.82104386  0.53137409  0.68270000    -0.66400
O515        O  0.94145964  0.49053437  0.69179268    -0.78700
C516        C  0.87450405  0.49741701  0.71366898     0.84700
O517        O  0.88992727  0.48331730  0.70755146    -0.65900
Ni518      Ni  0.89944778  0.48284405  0.66872369     1.27400
Ni519      Ni  0.81938433  0.49923720  0.68000572     1.26100
H520        H  0.81971596  0.47373546  0.69393840     0.39300
O521        O  0.01948626  0.23177388  0.71234053    -0.80700
O522        O  0.05734438  0.23955839  0.66752476    -0.65400
O523        O  0.03629121  0.25594957  0.69499004    -1.12000
C524        C  0.90328764  0.24041463  0.68594731     1.06200
O525        O  0.00722857  0.26015000  0.66196997    -0.78600
O526        O  0.95719187  0.28165954  0.67477789    -0.66200
Ni527      Ni  0.06564641  0.24338885  0.70586567     1.34900
C528        C  0.95960608  0.29090275  0.68345647     0.84900
O529        O  0.10438906  0.25377449  0.68288785    -0.79100
O530        O  0.11361975  0.25371920  0.69988864    -0.89400
C531        C  0.03769347  0.24827457  0.66030190     0.84500
O532        O  0.07401120  0.21398466  0.70071089    -0.67600
O533        O  0.91482573  0.24292497  0.67680200    -0.86900
C534        C  0.06840696  0.20485958  0.69216960     0.85300
C535        C  0.12618193  0.25585734  0.69080423     1.06900
H536        H  0.99006187  0.22419995  0.68072515     0.38700
O537        O  0.99319369  0.24039544  0.68095739    -1.09500
O538        O  0.96953517  0.28035983  0.69150679    -0.66200
Ni539      Ni  0.98116475  0.24917351  0.69459625     1.26300
O540        O  0.05811519  0.21577049  0.68430522    -0.66400
O541        O  0.92588499  0.24211886  0.69365978    -0.78700
C542        C  0.99161688  0.24438416  0.71519590     0.84700
O543        O  0.97353233  0.25651890  0.70873035    -0.65900
Ni544      Ni  0.96238561  0.25142957  0.66999451     1.27400
Ni545      Ni  0.04860659  0.24720770  0.68147296     1.26100
H546        H  0.03957484  0.27212632  0.69539121     0.39300
O547        O  0.51243321  0.22876770  0.71132276    -0.80700
O548        O  0.55404684  0.23846612  0.66724067    -0.65400
O549        O  0.53890492  0.25308298  0.69526470    -1.12000
C550        C  0.40356353  0.25655733  0.68579990     1.06200
O551        O  0.51576545  0.26723980  0.66305357    -0.78600
O552        O  0.47352369  0.29138196  0.67627144    -0.66200
Ni553      Ni  0.56252163  0.23592926  0.70573942     1.34900
C554        C  0.47830410  0.29873844  0.68521286     0.84900
O555        O  0.60532516  0.24362950  0.68325790    -0.79100
O556        O  0.61336991  0.24212006  0.70033112    -0.89400
C557        C  0.54041957  0.25206526  0.66060830     0.84500
O558        O  0.56223455  0.20717174  0.69957650    -0.67600
O559        O  0.41665368  0.25918494  0.67677493    -0.86900
C560        C  0.55277501  0.19977486  0.69092562     0.85300
C561        C  0.62694168  0.24320739  0.69130488     1.06900
H562        H  0.48192759  0.23041654  0.68005359     0.38700
O563        O  0.49150258  0.24564966  0.68088147    -1.09500
O564        O  0.48278493  0.28600471  0.69294066    -0.66200
Ni565      Ni  0.48234177  0.25353705  0.69481372     1.26300
O566        O  0.54507931  0.21247686  0.68340442    -0.66400
O567        O  0.42562982  0.25380032  0.69359675    -0.78700
C568        C  0.49302572  0.24469641  0.71518395     0.84700
O569        O  0.47758815  0.25927287  0.70927446    -0.65900
Ni570      Ni  0.46724964  0.26251461  0.67037779     1.27400
Ni571      Ni  0.54820121  0.24475926  0.68153077     1.26100
H572        H  0.54820998  0.26838317  0.69607177     0.39300
O573        O  0.10976171  0.23316405  0.54007073    -0.80700
O574        O  0.07138412  0.24490875  0.58347866    -0.65400
O575        O  0.09246493  0.26049097  0.55589796    -1.12000
C576        C  0.22594149  0.24917991  0.56594259     1.06200
O577        O  0.11638192  0.26968907  0.58789536    -0.78600
O578        O  0.16561345  0.29085974  0.57510561    -0.66200
Ni579      Ni  0.06335259  0.24697455  0.54532438     1.34900
C580        C  0.16496613  0.29869021  0.56612385     0.84900
O581        O  0.02347534  0.25657140  0.56758068    -0.79100
O582        O  0.01586234  0.25967816  0.55055734    -0.89400
C583        C  0.09025925  0.25535828  0.59033360     0.84500
O584        O  0.05002239  0.21883797  0.55132873    -0.67600
O585        O  0.21337912  0.25402743  0.57481471    -0.86900
C586        C  0.05910544  0.20971976  0.55969949     0.85300
C587        C  0.00226481  0.25988543  0.55960929     1.06900
H588        H  0.14095365  0.23164262  0.57121831     0.38700
O589        O  0.13601726  0.24758499  0.57034075    -1.09500
O590        O  0.15845514  0.28655635  0.55831210    -0.66200
Ni591      Ni  0.14814316  0.25446232  0.55652962     1.26300
O592        O  0.07462694  0.22046892  0.56696034    -0.66400
O593        O  0.20387311  0.24825306  0.55804521    -0.78700
C594        C  0.13630861  0.24554522  0.53631017     0.84700
O595        O  0.15540805  0.25883038  0.54208803    -0.65900
Ni596      Ni  0.16392191  0.26160588  0.58095932     1.27400
Ni597      Ni  0.07997877  0.25224831  0.56943189     1.26100
H598        H  0.08854256  0.27658243  0.55527769     0.39300
O599        O  0.61828370  0.22626095  0.53911890    -0.80700
O600        O  0.57543248  0.23460360  0.58355523    -0.65400
O601        O  0.59073180  0.24975099  0.55551748    -1.12000
C602        C  0.72528588  0.25484398  0.56579770     1.06200
O603        O  0.61020252  0.26481003  0.58726069    -0.78600
O604        O  0.65503434  0.28904115  0.57459123    -0.66200
Ni605      Ni  0.56797257  0.23216315  0.54506151     1.34900
C606        C  0.65031711  0.29653001  0.56564446     0.84900
O607        O  0.52460321  0.23980310  0.56767041    -0.79100
O608        O  0.51648582  0.23671653  0.55068896    -0.89400
C609        C  0.58752394  0.24891633  0.59000612     0.84500
O610        O  0.57151591  0.20322980  0.55109994    -0.67600
O611        O  0.71141639  0.25673815  0.57478094    -0.86900
C612        C  0.58007252  0.19613504  0.55988617     0.85300
C613        C  0.50290326  0.23851196  0.55970871     1.06900
H614        H  0.64803174  0.22786990  0.57094303     0.38700
O615        O  0.63776743  0.24296451  0.57006150    -1.09500
O616        O  0.64525696  0.28379907  0.55796437    -0.66200
Ni617      Ni  0.64730399  0.25120705  0.55621763     1.26300
O618        O  0.58540558  0.20902390  0.56744039    -0.66400
O619        O  0.70395685  0.25253136  0.55782222    -0.78700
C620        C  0.63938942  0.24208606  0.53568600     0.84700
O621        O  0.65299429  0.25683580  0.54177531    -0.65900
Ni622      Ni  0.66004827  0.26014473  0.58065109     1.27400
Ni623      Ni  0.58136065  0.24125176  0.56929426     1.26100
H624        H  0.58068734  0.26490008  0.55464381     0.39300
O625        O  0.99647632  0.02274018  0.53991303    -0.80700
O626        O  0.03978529  0.01237540  0.58417197    -0.65400
O627        O  0.02419077  0.99910497  0.55604844    -1.12000
C628        C  0.88875087  0.99863379  0.56610764     1.06200
O629        O  0.00098202  0.98374891  0.58790757    -0.78600
O630        O  0.95328937  0.96165762  0.57528604    -0.66200
Ni631      Ni  0.04686674  0.01745426  0.54578497     1.34900
C632        C  0.96084188  0.95374655  0.56656854     0.84900
O633        O  0.09028430  0.00664467  0.56828825    -0.79100
O634        O  0.09834345  0.01364011  0.55150336    -0.89400
C635        C  0.02573003  0.99857780  0.59062312     0.84500
O636        O  0.04164880  0.04599525  0.55193151    -0.67600
O637        O  0.90193020  0.99712086  0.57517218    -0.86900
C638        C  0.03633990  0.05249188  0.56093922     0.85300
C639        C  0.11186425  0.01004059  0.56042122     1.06900
H640        H  0.96844690  0.02217564  0.57116738     0.38700
O641        O  0.97716376  0.00680118  0.57049736    -1.09500
O642        O  0.96861896  0.96603470  0.55886771    -0.66200
Ni643      Ni  0.96753205  0.99842331  0.55669172     1.26300
O644        O  0.03309138  0.03911380  0.56843327    -0.66400
O645        O  0.91063498  0.99834653  0.55815357    -0.78700
C646        C  0.97725022  0.00650310  0.53624764     0.84700
O647        O  0.96231396  0.99204272  0.54229508    -0.65900
Ni648      Ni  0.95224586  0.99086433  0.58116012     1.27400
Ni649      Ni  0.03366570  0.00667529  0.56988173     1.26100
H650        H  0.03377687  0.98395852  0.55498246     0.39300
O651        O  0.50895277  0.01375366  0.53977735    -0.80700
O652        O  0.54013834  0.00452743  0.58397348    -0.65400
O653        O  0.52254151  0.98804582  0.55653821    -1.12000
C654        C  0.38840300  0.99729834  0.56346665     1.06200
O655        O  0.48307329  0.99205218  0.59041996    -0.78600
O656        O  0.46249286  0.96042038  0.57624544    -0.66200
Ni657      Ni  0.55399955  0.00065598  0.54609653     1.34900
C658        C  0.45812101  0.95159652  0.56752434     0.84900
O659        O  0.58932001  0.99138832  0.56907141    -0.79100
O660        O  0.60038319  0.98857417  0.55220154    -0.89400
C661        C  0.51748233  0.00008648  0.59138393     0.84500
O662        O  0.56553590  0.02951093  0.55165719    -0.67600
O663        O  0.39933098  0.98648778  0.57129864    -0.86900
C664        C  0.55675577  0.03883723  0.55998313     0.85300
C665        C  0.61221731  0.98840142  0.56140174     1.06900
H666        H  0.47236682  0.01955397  0.57071980     0.38700
O667        O  0.47658273  0.00348328  0.57014000    -1.09500
O668        O  0.45514785  0.96341215  0.55935833    -0.66200
Ni669      Ni  0.46751922  0.99516202  0.55631236     1.26300
O670        O  0.54117939  0.02832098  0.56733982    -0.66400
O671        O  0.41266051  0.00358424  0.55665772    -0.78700
C672        C  0.48277259  0.00107752  0.53609137     0.84700
O673        O  0.46270410  0.98854904  0.54201333    -0.65900
Ni674      Ni  0.44412210  0.98940135  0.58004664     1.27400
Ni675      Ni  0.53264496  0.99689575  0.57007050     1.26100
H676        H  0.52578549  0.97185374  0.55617239     0.39300
O677        O  0.10638631  0.01800105  0.71171140    -0.80700
O678        O  0.06020852  0.00925725  0.66791593    -0.65400
O679        O  0.07905031  0.99336613  0.69573782    -1.12000
C680        C  0.21173143  0.98975292  0.68455250     1.06200
O681        O  0.09482425  0.97930615  0.66365391    -0.78600
O682        O  0.13772563  0.95457275  0.67641924    -0.66200
Ni683      Ni  0.05600511  0.01020543  0.70641969     1.34900
C684        C  0.13653860  0.94771531  0.68553459     0.84900
O685        O  0.01153158  0.00323311  0.68428406    -0.79100
O686        O  0.00446155  0.00369593  0.70136568    -0.89400
C687        C  0.07211344  0.99543468  0.66121226     0.84500
O688        O  0.05541968  0.03924037  0.70038696    -0.67600
O689        O  0.19683110  0.98554031  0.67585760    -0.86900
C690        C  0.06611499  0.04666692  0.69181456     0.85300
C691        C  0.99042246  0.00277348  0.69238237     1.06900
H692        H  0.13398061  0.01585223  0.67960540     0.38700
O693        O  0.12407021  0.00078546  0.68077842    -1.09500
O694        O  0.13577000  0.96086615  0.69315697    -0.66200
Ni695      Ni  0.13545286  0.99341642  0.69462414     1.26300
O696        O  0.07278282  0.03409348  0.68423255    -0.66400
O697        O  0.19151781  0.99368505  0.69257085    -0.78700
C698        C  0.12900679  0.00291372  0.71512793     0.84700
O699        O  0.14331396  0.98838132  0.70904653    -0.65900
Ni700      Ni  0.14500939  0.98303649  0.67017395     1.27400
Ni701      Ni  0.06795185  0.00208804  0.68209883     1.26100
H702        H  0.07019506  0.97796165  0.69657964     0.39300
O703        O  0.59595156  0.01231374  0.71229728    -0.80700
O704        O  0.56173928  0.00608332  0.66742118    -0.65400
O705        O  0.57746746  0.98860456  0.69499209    -1.12000
C706        C  0.71323483  0.99570808  0.68656644     1.06200
O707        O  0.60698100  0.98158525  0.66257573    -0.78600
O708        O  0.65137277  0.95762930  0.67560638    -0.66200
Ni709      Ni  0.54904690  0.00262121  0.70560307     1.34900
C710        C  0.64783731  0.94896625  0.68438509     0.84900
O711        O  0.51107769  0.99450827  0.68240642    -0.79100
O712        O  0.50064670  0.99433512  0.69935506    -0.89400
C713        C  0.58008521  0.99571233  0.66046908     0.84500
O714        O  0.54455235  0.03218102  0.70022797    -0.67600
O715        O  0.70182171  0.99289497  0.67743426    -0.86900
C716        C  0.55244987  0.04105385  0.69172390     0.85300
C717        C  0.48849258  0.99331250  0.69019957     1.06900
H718        H  0.63034938  0.01725753  0.68072846     0.38700
O719        O  0.62420928  0.00135249  0.68115353    -1.09500
O720        O  0.64035158  0.96042407  0.69232802    -0.66200
Ni721      Ni  0.63352844  0.99237632  0.69491964     1.26300
O722        O  0.56314095  0.02976974  0.68403674    -0.66400
O723        O  0.68990453  0.99640685  0.69419013    -0.78700
C724        C  0.62160375  0.99849855  0.71542285     0.84700
O725        O  0.63854548  0.98535679  0.70917825    -0.65900
Ni726      Ni  0.65310230  0.98764365  0.67051416     1.27400
Ni727      Ni  0.56780959  0.99791550  0.68138151     1.26100
H728        H  0.57155167  0.97265613  0.69540544     0.39300
O729        O  0.34441535  0.73585288  0.53935238    -0.80700
O730        O  0.30909075  0.74085940  0.58430862    -0.65400
O731        O  0.32789147  0.75919211  0.55687232    -1.12000
C732        C  0.46233055  0.74683275  0.56534876     1.06200
O733        O  0.35764779  0.76255025  0.58975673    -0.78600
O734        O  0.40339479  0.78643109  0.57689991    -0.66200
Ni735      Ni  0.29830545  0.74682385  0.54602873     1.34900
C736        C  0.40082053  0.79559669  0.56819033     0.84900
O737        O  0.26073222  0.75472601  0.56916745    -0.79100
O738        O  0.25051623  0.75667291  0.55222148    -0.89400
C739        C  0.32847718  0.74971074  0.59151761     0.84500
O740        O  0.29098369  0.71710234  0.55108157    -0.67600
O741        O  0.45102659  0.74974510  0.57447925    -0.86900
C742        C  0.29864997  0.70762134  0.55946934     0.85300
C743        C  0.23846461  0.75746415  0.56138852     1.06900
H744        H  0.37718479  0.72793858  0.57092799     0.38700
O745        O  0.37275060  0.74403824  0.57067814    -1.09500
O746        O  0.39337327  0.78470040  0.56008488    -0.66200
Ni747      Ni  0.38339310  0.75334205  0.55698616     1.26300
O748        O  0.30957995  0.71821786  0.56731256    -0.66400
O749        O  0.43914633  0.74719006  0.55770120    -0.78700
C750        C  0.37121263  0.74905666  0.53635630     0.84700
O751        O  0.38954997  0.76111428  0.54278411    -0.65900
Ni752      Ni  0.40290845  0.75593147  0.58152950     1.27400
Ni753      Ni  0.31684856  0.74954871  0.57037742     1.26100
H754        H  0.32374531  0.77532791  0.55661963     0.39300
O755        O  0.85006502  0.73594177  0.53950754    -0.80700
O756        O  0.80947172  0.74220397  0.58370008    -0.65400
O757        O  0.82765929  0.75963007  0.55617622    -1.12000
C758        C  0.96247778  0.75271568  0.56577858     1.06200
O759        O  0.85367222  0.76710671  0.58866290    -0.78600
O760        O  0.90207719  0.79040317  0.57626465    -0.66200
Ni761      Ni  0.80140554  0.74513555  0.54536914     1.34900
C762        C  0.89735737  0.79946989  0.56759500     0.84900
O763        O  0.76024294  0.75271476  0.56805259    -0.79100
O764        O  0.75154058  0.75306631  0.55100599    -0.89400
C765        C  0.82731841  0.75264655  0.59074561     0.84500
O766        O  0.79730217  0.71552101  0.55074629    -0.67600
O767        O  0.95008201  0.75394494  0.57489748    -0.86900
C768        C  0.80517953  0.70682985  0.55928685     0.85300
C769        C  0.73843464  0.75370934  0.56008669     1.06900
H770        H  0.87967185  0.73143528  0.57064764     0.38700
O771        O  0.87320381  0.74730738  0.57032827    -1.09500
O772        O  0.88861645  0.78845935  0.55961069    -0.66200
Ni773      Ni  0.88387487  0.75663696  0.55669495     1.26300
O774        O  0.81407746  0.71834802  0.56704635    -0.66400
O775        O  0.94020996  0.75353038  0.55794351    -0.78700
C776        C  0.87415114  0.75038982  0.53619146     0.84700
O777        O  0.89039414  0.76390856  0.54241300    -0.65900
Ni778      Ni  0.90085677  0.76027346  0.58131782     1.27400
Ni779      Ni  0.81681996  0.75022548  0.56968857     1.26100
H780        H  0.82107081  0.77545561  0.55568802     0.39300
O781        O  0.24092984  0.72582853  0.71206097    -0.80700
O782        O  0.28608613  0.73880909  0.66805042    -0.65400
O783        O  0.26794217  0.75034930  0.69615672    -1.12000
C784        C  0.13255181  0.74768561  0.68605560     1.06200
O785        O  0.24164425  0.76426146  0.66374352    -0.78600
O786        O  0.19237096  0.78517502  0.67675138    -0.66200
Ni787      Ni  0.29114158  0.73178947  0.70628713     1.34900
C788        C  0.19920041  0.79357792  0.68543298     0.84900
O789        O  0.33467980  0.74583078  0.68409332    -0.79100
O790        O  0.34237920  0.73659141  0.70067751    -0.89400
C791        C  0.26833596  0.75032845  0.66131485     0.84500
O792        O  0.28649476  0.70350225  0.69987324    -0.67600
O793        O  0.14539482  0.74843155  0.67697051    -0.86900
C794        C  0.28255182  0.69752382  0.69074953     0.85300
C795        C  0.35595222  0.74211579  0.69197445     1.06900
H796        H  0.21500081  0.72581403  0.68100760     0.38700
O797        O  0.22194685  0.74154318  0.68157997    -1.09500
O798        O  0.21039171  0.78198479  0.69306772    -0.66200
Ni799      Ni  0.21149480  0.74973419  0.69538843     1.26300
O800        O  0.28091798  0.71133262  0.68338947    -0.66400
O801        O  0.15464289  0.74875332  0.69394652    -0.78700
C802        C  0.22172751  0.74200267  0.71578071     0.84700
O803        O  0.20591920  0.75619979  0.70975739    -0.65900
Ni804      Ni  0.19459056  0.75597497  0.67085007     1.27400
Ni805      Ni  0.27845892  0.74379004  0.68230084     1.26100
H806        H  0.27644752  0.76564365  0.69744304     0.39300
O807        O  0.74720321  0.72931036  0.71209647    -0.80700
O808        O  0.78326334  0.73960618  0.66738323    -0.65400
O809        O  0.76590691  0.75395692  0.69517330    -1.12000
C810        C  0.63173546  0.75278886  0.68830343     1.06200
O811        O  0.72686606  0.75292265  0.66092750    -0.78600
O812        O  0.71060702  0.78498151  0.67546257    -0.66200
Ni813      Ni  0.79446233  0.73931909  0.70564766     1.34900
C814        C  0.70672233  0.79352465  0.68426932     0.84900
O815        O  0.83214175  0.75010282  0.68267273    -0.79100
O816        O  0.84311887  0.74823201  0.69959017    -0.89400
C817        C  0.76129286  0.74488765  0.65993531     0.84500
O818        O  0.79901291  0.71013562  0.69991671    -0.67600
O819        O  0.64392381  0.76177348  0.68013412    -0.86900
C820        C  0.79244205  0.70192446  0.69122853     0.85300
C821        C  0.85498867  0.75050906  0.69044809     1.06900
H822        H  0.71307878  0.72512654  0.68055510     0.38700
O823        O  0.71885666  0.74102394  0.68125989    -1.09500
O824        O  0.70239267  0.78150670  0.69228810    -0.66200
Ni825      Ni  0.71035523  0.74946024  0.69517353     1.26300
O826        O  0.78216467  0.71380633  0.68362924    -0.66400
O827        O  0.65485692  0.74407564  0.69478336    -0.78700
C828        C  0.72325874  0.74367655  0.71553683     0.84700
O829        O  0.70560618  0.75674611  0.70938782    -0.65900
Ni830      Ni  0.68841192  0.75697386  0.67140291     1.27400
Ni831      Ni  0.77554290  0.74587158  0.68148391     1.26100
H832        H  0.77129505  0.76989558  0.69581640     0.39300
O833        O  0.50187442  0.51694734  0.91141738    -0.80700
O834        O  0.53054268  0.50418729  0.95751666    -0.65400
O835        O  0.51395934  0.49310720  0.92911376    -1.12000
C836        C  0.37997778  0.50873440  0.93832801     1.06200
O837        O  0.48245544  0.47989360  0.95930677    -0.78600
O838        O  0.42595667  0.46622782  0.94722822    -0.66200
Ni839      Ni  0.54595953  0.50473345  0.91866417     1.34900
C840        C  0.43471812  0.45725741  0.93882527     0.84900
O841        O  0.58051340  0.49250621  0.94202471    -0.79100
O842        O  0.59200259  0.49288859  0.92512080    -0.89400
C843        C  0.50961548  0.49149427  0.96321796     0.84500
O844        O  0.55564011  0.53360340  0.92451105    -0.67600
O845        O  0.39201880  0.50741491  0.94748901    -0.86900
C846        C  0.55129333  0.54226875  0.93325850     0.85300
C847        C  0.60324534  0.49031569  0.93429823     1.06900
H848        H  0.46697082  0.52329034  0.94377531     0.38700
O849        O  0.46964067  0.50712794  0.94308935    -1.09500
O850        O  0.44894354  0.46825418  0.93139978    -0.66200
Ni851      Ni  0.45851771  0.50004688  0.92935813     1.26300
O852        O  0.53765361  0.53140355  0.94088181    -0.66400
O853        O  0.40235915  0.50618889  0.93053952    -0.78700
C854        C  0.47223839  0.50542042  0.90868047     0.84700
O855        O  0.45158709  0.49470409  0.91514320    -0.65900
Ni856      Ni  0.43798237  0.49426587  0.95332909     1.27400
Ni857      Ni  0.52487180  0.49976429  0.94297979     1.26100
H858        H  0.51679199  0.47694355  0.92850065     0.39300
O859        O  0.98849282  0.51904987  0.91269566    -0.80700
O860        O  0.03160774  0.50880544  0.95766688    -0.65400
O861        O  0.01463212  0.49548601  0.92944065    -1.12000
C862        C  0.87961125  0.49497592  0.94004731     1.06200
O863        O  0.99378857  0.47960987  0.96023077    -0.78600
O864        O  0.94373384  0.45845391  0.94866784    -0.66200
Ni865      Ni  0.03823256  0.51234435  0.91888559     1.34900
C866        C  0.95296200  0.45065030  0.94007259     0.84900
O867        O  0.08167827  0.50212969  0.94151964    -0.79100
O868        O  0.08939167  0.50676004  0.92455283    -0.89400
C869        C  0.01549249  0.49491827  0.96377258     0.84500
O870        O  0.03644446  0.54117835  0.92499495    -0.67600
O871        O  0.89316978  0.49401234  0.94908811    -0.86900
C872        C  0.03190458  0.54831746  0.93396157     0.85300
C873        C  0.10307287  0.50377088  0.93350346     1.06900
H874        H  0.96012891  0.51923987  0.94473128     0.38700
O875        O  0.96848040  0.50373356  0.94397831    -1.09500
O876        O  0.96008741  0.46298254  0.93236439    -0.66200
Ni877      Ni  0.95814132  0.49534389  0.93028093     1.26300
O878        O  0.02625274  0.53545126  0.94156366    -0.66400
O879        O  0.90125238  0.49501409  0.93203277    -0.78700
C880        C  0.96533868  0.50372346  0.90968343     0.84700
O881        O  0.95177251  0.48932576  0.91597629    -0.65900
Ni882      Ni  0.94401812  0.48742661  0.95457289     1.27400
Ni883      Ni  0.02512046  0.50305545  0.94325648     1.26100
H884        H  0.02358651  0.48014642  0.92849435     0.39300
O885        O  0.39154085  0.51969905  0.83601507    -0.80700
O886        O  0.35693799  0.51123212  0.79031928    -0.65400
O887        O  0.37501477  0.49699744  0.81835163    -1.12000
C888        C  0.50943681  0.50910321  0.80875262     1.06200
O889        O  0.40248072  0.48573940  0.78774431    -0.78600
O890        O  0.45787174  0.46829188  0.79934804    -0.66200
Ni891      Ni  0.34552436  0.50954128  0.82907386     1.34900
C892        C  0.45063774  0.45926989  0.80786504     0.84900
O893        O  0.30765828  0.49924203  0.80585634    -0.79100
O894        O  0.29778788  0.49997491  0.82282563    -0.89400
C895        C  0.37664990  0.49895969  0.78423754     0.84500
O896        O  0.33860260  0.53905953  0.82363380    -0.67600
O897        O  0.49726410  0.50790586  0.79959362    -0.86900
C898        C  0.34260900  0.54794160  0.81491727     0.85300
C899        C  0.28556879  0.49762170  0.81373258     1.06900
H900        H  0.42381428  0.52681079  0.80375286     0.38700
O901        O  0.41956619  0.51065885  0.80428762    -1.09500
O902        O  0.43824397  0.47031490  0.81547155    -0.66200
Ni903      Ni  0.43088058  0.50220353  0.81787851     1.26300
O904        O  0.35402050  0.53695852  0.80712916    -0.66400
O905        O  0.48706627  0.50705232  0.81655570    -0.78700
C906        C  0.41938888  0.50664876  0.83858926     0.84700
O907        O  0.43832545  0.49551017  0.83197139    -0.65900
Ni908      Ni  0.44917431  0.49737977  0.79374399     1.27400
Ni909      Ni  0.36365564  0.50509965  0.80465347     1.26100
H910        H  0.37060911  0.48088404  0.81885942     0.39300
O911        O  0.89805134  0.51788125  0.83657954    -0.80700
O912        O  0.85731955  0.50895036  0.79103811    -0.65400
O913        O  0.87467126  0.49517887  0.81918059    -1.12000
C914        C  0.00900690  0.49663918  0.80849213     1.06200
O915        O  0.89450465  0.47932788  0.78845805    -0.78600
O916        O  0.94386292  0.45800849  0.80031624    -0.66200
Ni917      Ni  0.84930292  0.51045748  0.82990287     1.34900
C918        C  0.93702592  0.45105942  0.80922371     0.84900
O919        O  0.80754773  0.50204999  0.80700017    -0.79100
O920        O  0.79882513  0.50418592  0.82399274    -0.89400
C921        C  0.87190697  0.49442472  0.78500323     0.84500
O922        O  0.84846558  0.53964913  0.82399629    -0.67600
O923        O  0.99528362  0.49360489  0.79956818    -0.86900
C924        C  0.85301152  0.54774561  0.81515073     0.85300
C925        C  0.78569320  0.50265052  0.81492793     1.06900
H926        H  0.92846525  0.51966908  0.80356990     0.38700
O927        O  0.92033113  0.50417993  0.80457305    -1.09500
O928        O  0.93164173  0.46409375  0.81670159    -0.66200
Ni929      Ni  0.93107947  0.49636569  0.81832247     1.26300
O930        O  0.86178761  0.53575672  0.80743611    -0.66400
O931        O  0.98771104  0.49755482  0.81654057    -0.78700
C932        C  0.92381710  0.50335888  0.83907149     0.84700
O933        O  0.93827465  0.49012502  0.83249793    -0.65900
Ni934      Ni  0.94431811  0.48700554  0.79416234     1.27400
Ni935      Ni  0.86396067  0.50325100  0.80540863     1.26100
H936        H  0.86684005  0.47959688  0.81992461     0.39300
O937        O  0.15185548  0.73017184  0.91248063    -0.80700
O938        O  0.11208096  0.73960455  0.95780842    -0.65400
O939        O  0.13238890  0.75313225  0.92982823    -1.12000
C940        C  0.26573497  0.74115115  0.94049225     1.06200
O941        O  0.15663767  0.76569333  0.96066356    -0.78600
O942        O  0.21419926  0.78237982  0.94932014    -0.66200
Ni943      Ni  0.10454899  0.74009359  0.91894116     1.34900
C944        C  0.20723296  0.79147897  0.94080543     0.84900
O945        O  0.06375484  0.75008976  0.94177642    -0.79100
O946        O  0.05557761  0.74935289  0.92473297    -0.89400
C947        C  0.12976822  0.75279789  0.96393552     0.84500
O948        O  0.09819151  0.71074602  0.92452430    -0.67600
O949        O  0.25237656  0.74230923  0.94955324    -0.86900
C950        C  0.10169852  0.70186481  0.93325733     0.85300
C951        C  0.04237954  0.75149399  0.93375095     1.06900
H952        H  0.18030502  0.72404107  0.94483793     0.38700
O953        O  0.17571317  0.74009510  0.94425803    -1.09500
O954        O  0.19482666  0.78046970  0.93317558    -0.66200
Ni955      Ni  0.18834002  0.74844590  0.93074416     1.26300
O956        O  0.11170723  0.71297990  0.94113188    -0.66400
O957        O  0.24447994  0.74376537  0.93250901    -0.78700
C958        C  0.17916637  0.74365893  0.90998936     0.84700
O959        O  0.19704266  0.75509773  0.91669520    -0.65900
Ni960      Ni  0.20389993  0.75349550  0.95499588     1.27400
Ni961      Ni  0.11985300  0.74509282  0.94346289     1.26100
H962        H  0.12760336  0.76914869  0.92923678     0.39300
O963        O  0.65547713  0.72920481  0.91188965    -0.80700
O964        O  0.61627085  0.73684468  0.95728655    -0.65400
O965        O  0.62956905  0.75098103  0.92912972    -1.12000
C966        C  0.76539509  0.75201937  0.93861294     1.06200
O967        O  0.65348833  0.76652300  0.95984576    -0.78600
O968        O  0.70220830  0.78856635  0.94793490    -0.66200
Ni969      Ni  0.60610351  0.73401275  0.91865899     1.34900
C970        C  0.69157595  0.79653502  0.93945330     0.84900
O971        O  0.56427782  0.74311655  0.94167224    -0.79100
O972        O  0.55537717  0.73807725  0.92480110    -0.89400
C973        C  0.63129472  0.75122491  0.96330289     0.84500
O974        O  0.61077879  0.70473865  0.92448860    -0.67600
O975        O  0.75284592  0.75290166  0.94775110    -0.86900
C976        C  0.61535669  0.69721919  0.93343196     0.85300
C977        C  0.54231217  0.74115146  0.93380084     1.06900
H978        H  0.68666630  0.72730676  0.94385994     0.38700
O979        O  0.67757427  0.74272585  0.94326998    -1.09500
O980        O  0.68301809  0.78424841  0.93188688    -0.66200
Ni981      Ni  0.68593380  0.75203603  0.92961646     1.26300
O982        O  0.62033428  0.71000642  0.94109975    -0.66400
O983        O  0.74292870  0.75270894  0.93078915    -0.78700
C984        C  0.67787231  0.74525504  0.90917247     0.84700
O985        O  0.69041463  0.75943253  0.91557477    -0.65900
Ni986      Ni  0.70268018  0.75918152  0.95368419     1.27400
Ni987      Ni  0.62096369  0.74265467  0.94292619     1.26100
H988        H  0.61972081  0.76618903  0.92831789     0.39300
O989        O  0.27180851  0.74281974  0.83932096    -0.80700
O990        O  0.29151745  0.74389564  0.79096170    -0.65400
O991        O  0.27762852  0.75553056  0.81938469    -1.12000
C992        C  0.14210304  0.74314491  0.80978064     1.06200
O993        O  0.24817556  0.77090195  0.78924340    -0.78600
O994        O  0.19202546  0.78622883  0.80168075    -0.66200
Ni995      Ni  0.30868810  0.73828058  0.82861472     1.34900
C996        C  0.19782745  0.79363982  0.81055372     0.84900
O997        O  0.34236531  0.75508528  0.80612805    -0.79100
O998        O  0.35174963  0.73293606  0.81946582    -0.89400
C999        C  0.27232111  0.75731997  0.78525908     0.84500
O1000       O  0.28335846  0.71148732  0.82413651    -0.67600
O1001       O  0.15404018  0.74661459  0.80070601    -0.86900
C1002       C  0.28742171  0.70364726  0.81519845     0.85300
C1003       C  0.36518444  0.74502668  0.81231310     1.06900
H1004       H  0.22671813  0.72757410  0.80415034     0.38700
O1005       O  0.23125208  0.74347590  0.80518225    -1.09500
O1006       O  0.21180505  0.78159287  0.81769266    -0.66200
Ni1007     Ni  0.22112827  0.74950940  0.81900774     1.26300
O1008       O  0.29474283  0.71636470  0.80750375    -0.66400
O1009       O  0.16463924  0.74389909  0.81764157    -0.78700
C1010       C  0.23681802  0.74980565  0.84049966     0.84700
O1011       O  0.21330329  0.75396545  0.83322433    -0.65900
Ni1012     Ni  0.20156265  0.75839873  0.79508194     1.27400
Ni1013     Ni  0.28667578  0.74892059  0.80536006     1.26100
H1014       H  0.28257128  0.77137757  0.82055760     0.39300
O1015       O  0.75181994  0.73186636  0.83651501    -0.80700
O1016       O  0.78894472  0.74156312  0.79095818    -0.65400
O1017       O  0.77681420  0.75529209  0.81934693    -1.12000
C1018       C  0.64154534  0.76035072  0.80993741     1.06200
O1019       O  0.75580064  0.77279398  0.78909245    -0.78600
O1020       O  0.71262116  0.79619135  0.80141123    -0.66200
Ni1021     Ni  0.80072688  0.73829052  0.82980308     1.34900
C1022       C  0.72007231  0.80223235  0.81037419     0.84900
O1023       O  0.84249198  0.74585572  0.80676982    -0.79100
O1024       O  0.85110061  0.74341678  0.82377926    -0.89400
C1025       C  0.77306492  0.75620521  0.78513968     0.84500
O1026       O  0.79756143  0.70951333  0.82368541    -0.67600
O1027       O  0.65450259  0.76461892  0.80102467    -0.86900
C1028       C  0.78954618  0.70211904  0.81491492     0.85300
C1029       C  0.86442956  0.74482130  0.81473280     1.06900
H1030       H  0.71812125  0.73397961  0.80391020     0.38700
O1031       O  0.72856394  0.74900710  0.80504200    -1.09500
O1032       O  0.72293635  0.78856324  0.81775637    -0.66200
Ni1033     Ni  0.72033585  0.75613913  0.81893131     1.26300
O1034       O  0.78238757  0.71486297  0.80732400    -0.66400
O1035       O  0.66359414  0.75664392  0.81766622    -0.78700
C1036       C  0.72775386  0.74692270  0.83934584     0.84700
O1037       O  0.71516232  0.76159039  0.83314763    -0.65900
Ni1038     Ni  0.70561168  0.76805865  0.79507848     1.27400
Ni1039     Ni  0.78529919  0.74731730  0.80544816     1.26100
H1040       H  0.78651511  0.77046060  0.82014540     0.39300
O1041       O  0.38983721  0.23154809  0.91274327    -0.80700
O1042       O  0.34950388  0.24187950  0.95816434    -0.65400
O1043       O  0.36686968  0.25512568  0.92996724    -1.12000
C1044       C  0.50128485  0.25238284  0.94051635     1.06200
O1045       O  0.38780030  0.27100189  0.96060879    -0.78600
O1046       O  0.43798603  0.29156258  0.94868962    -0.66200
Ni1047     Ni  0.34131787  0.23961690  0.91936126     1.34900
C1048       C  0.43074140  0.29873127  0.93983827     0.84900
O1049       O  0.29957582  0.24920952  0.94224385    -0.79100
O1050       O  0.29117822  0.24651326  0.92525640    -0.89400
C1051       C  0.36514473  0.25605871  0.96416589     0.84500
O1052       O  0.33990813  0.21064408  0.92544557    -0.67600
O1053       O  0.48797560  0.25556584  0.94946958    -0.86900
C1054       C  0.34448257  0.20284132  0.93433593     0.85300
C1055       C  0.27788332  0.24862903  0.93428274     1.06900
H1056       H  0.42016524  0.23035849  0.94555000     0.38700
O1057       O  0.41248845  0.24591944  0.94454731    -1.09500
O1058       O  0.42438626  0.28584100  0.93234673    -0.66200
Ni1059     Ni  0.42319337  0.25347386  0.93076717     1.26300
O1060       O  0.35337371  0.21501046  0.94195602    -0.66400
O1061       O  0.47973710  0.25172531  0.93250845    -0.78700
C1062       C  0.41566217  0.24584448  0.91005440     0.84700
O1063       O  0.43038828  0.25928840  0.91651287    -0.65900
Ni1064     Ni  0.43732649  0.26273518  0.95491585     1.27400
Ni1065     Ni  0.35610200  0.24744747  0.94379235     1.26100
H1066       H  0.35935080  0.27070145  0.92913318     0.39300
O1067       O  0.88593995  0.23470371  0.91166470    -0.80700
O1068       O  0.85049471  0.23823204  0.95884381    -0.65400
O1069       O  0.86790840  0.25303832  0.93071898    -1.12000
C1070       C  0.00222738  0.24260925  0.94100919     1.06200
O1071       O  0.89342119  0.26503456  0.96161387    -0.78600
O1072       O  0.94928963  0.28320691  0.95026295    -0.66200
Ni1073     Ni  0.84016092  0.23861258  0.92003801     1.34900
C1074       C  0.94076818  0.29214543  0.94180909     0.84900
O1075       O  0.80108935  0.24942667  0.94348906    -0.79100
O1076       O  0.79094567  0.24176104  0.92699865    -0.89400
C1077       C  0.86807425  0.25135749  0.96498561     0.84500
O1078       O  0.84706660  0.20878356  0.92509355    -0.67600
O1079       O  0.98926515  0.24360798  0.95009598    -0.86900
C1080       C  0.84766047  0.20052225  0.93400398     0.85300
C1081       C  0.77852329  0.24653006  0.93585530     1.06900
H1082       H  0.91805262  0.22407176  0.94545751     0.38700
O1083       O  0.91278003  0.24007011  0.94498056    -1.09500
O1084       O  0.92860066  0.28090759  0.93425750    -0.66200
Ni1085     Ni  0.92417289  0.24913941  0.93149050     1.26300
O1086       O  0.84945669  0.21254884  0.94201821    -0.66400
O1087       O  0.98062391  0.24514851  0.93308311    -0.78700
C1088       C  0.91509651  0.24774152  0.91027674     0.84700
O1089       O  0.93270822  0.25726853  0.91759457    -0.65900
Ni1090     Ni  0.94079207  0.25385094  0.95572949     1.27400
Ni1091     Ni  0.85697110  0.24460580  0.94453145     1.26100
H1092       H  0.86197167  0.26895415  0.93007363     0.39300
O1093       O  0.49101377  0.23431705  0.83770410    -0.80700
O1094       O  0.53972346  0.24112715  0.79224846    -0.65400
O1095       O  0.52005106  0.25564597  0.82031464    -1.12000
C1096       C  0.38669686  0.25605638  0.80861377     1.06200
O1097       O  0.50317266  0.27076770  0.78920930    -0.78600
O1098       O  0.45123068  0.29270373  0.80024354    -0.66200
Ni1099     Ni  0.54141990  0.23910726  0.83130262     1.34900
C1100       C  0.45971502  0.30063937  0.80887118     0.84900
O1101       O  0.58812072  0.24727268  0.80875781    -0.79100
O1102       O  0.59335732  0.24282262  0.82578912    -0.89400
C1103       C  0.52521167  0.25524344  0.78594104     0.84500
O1104       O  0.53775720  0.20991637  0.82549800    -0.67600
O1105       O  0.40097451  0.25695744  0.79964586    -0.86900
C1106       C  0.53558686  0.20226679  0.81653494     0.85300
C1107       C  0.60832536  0.24519266  0.81694268     1.06900
H1108       H  0.46671509  0.23173023  0.80477486     0.38700
O1109       O  0.47547870  0.24716381  0.80545199    -1.09500
O1110       O  0.46684351  0.28840014  0.81658247    -0.66200
Ni1111     Ni  0.46389428  0.25630954  0.81896057     1.26300
O1112       O  0.53196523  0.21476955  0.80869798    -0.66400
O1113       O  0.40753743  0.25669524  0.81674490    -0.78700
C1114       C  0.46672647  0.24990089  0.83982958     0.84700
O1115       O  0.45548555  0.26371861  0.83302233    -0.65900
Ni1116     Ni  0.45256573  0.26337333  0.79454680     1.27400
Ni1117     Ni  0.53187349  0.24719637  0.80662169     1.26100
H1118       H  0.52940923  0.27092603  0.82116598     0.39300
O1119       O  0.00703431  0.23371301  0.83842596    -0.80700
O1120       O  0.03216267  0.23962625  0.79141921    -0.65400
O1121       O  0.02073012  0.25430763  0.81969215    -1.12000
C1122       C  0.88473980  0.24274662  0.81141094     1.06200
O1123       O  0.98876005  0.26659589  0.78955977    -0.78600
O1124       O  0.93375198  0.28372460  0.80159955    -0.66200
Ni1125     Ni  0.05152824  0.24112660  0.83009401     1.34900
C1126       C  0.94355654  0.29278933  0.80990241     0.84900
O1127       O  0.08546128  0.25077942  0.80608360    -0.79100
O1128       O  0.09876286  0.24774633  0.82279745    -0.89400
C1129       C  0.01276171  0.25286691  0.78564668     0.84500
O1130       O  0.05114946  0.21125255  0.82494795    -0.67600
O1131       O  0.89605336  0.24375446  0.80216881    -0.86900
C1132       C  0.04664932  0.20253663  0.81623764     0.85300
C1133       C  0.10935515  0.25070303  0.81360627     1.06900
H1134       H  0.96815836  0.22509014  0.80583238     0.38700
O1135       O  0.97321939  0.24113315  0.80622757    -1.09500
O1136       O  0.95838419  0.28178624  0.81725007    -0.66200
Ni1137     Ni  0.96452068  0.24991073  0.81985845     1.26300
O1138       O  0.03771155  0.21391185  0.80831881    -0.66400
O1139       O  0.90768770  0.24558377  0.81907332    -0.78700
C1140       C  0.97883229  0.24674821  0.84075717     0.84700
O1141       O  0.95944163  0.25726481  0.83397115    -0.65900
Ni1142     Ni  0.94278764  0.25477196  0.79591963     1.27400
Ni1143     Ni  0.02907322  0.24587362  0.80581471     1.26100
H1144       H  0.02604609  0.27030738  0.82008599     0.39300
O1145       O  0.23780103  0.01778374  0.91495941    -0.80700
O1146       O  0.27761941  0.01036954  0.96048318    -0.65400
O1147       O  0.26329980  0.99592634  0.93235083    -1.12000
C1148       C  0.12805587  0.99344734  0.94258750     1.06200
O1149       O  0.24247986  0.97994563  0.96303179    -0.78600
O1150       O  0.19410088  0.95746813  0.95139423    -0.66200
Ni1151     Ni  0.28709231  0.01227811  0.92169089     1.34900
C1152       C  0.20448460  0.95002664  0.94281454     0.84900
O1153       O  0.32901573  0.00447132  0.94474403    -0.79100
O1154       O  0.33785667  0.00792389  0.92778094    -0.89400
C1155       C  0.26353916  0.99563270  0.96652307     0.84500
O1156       O  0.28345875  0.04141303  0.92743174    -0.67600
O1157       O  0.14144402  0.99222124  0.95163529    -0.86900
C1158       C  0.27788829  0.04913872  0.93627071     0.85300
C1159       C  0.35092781  0.00592937  0.93684190     1.06900
H1160       H  0.20646839  0.01902841  0.94740270     0.38700
O1161       O  0.21594090  0.00372631  0.94668467    -1.09500
O1162       O  0.21083478  0.96269204  0.93519083    -0.66200
Ni1163     Ni  0.20684669  0.99488983  0.93301688     1.26300
O1164       O  0.27196250  0.03672408  0.94403939    -0.66400
O1165       O  0.14987965  0.99381898  0.93460562    -0.78700
C1166       C  0.21419972  0.00230208  0.91231368     0.84700
O1167       O  0.20127921  0.98818731  0.91880337    -0.65900
Ni1168     Ni  0.19243026  0.98665373  0.95721775     1.27400
Ni1169     Ni  0.27244613  0.00429621  0.94612799     1.26100
H1170       H  0.27308088  0.98070347  0.93164299     0.39300
O1171       O  0.74502739  0.01582318  0.91408853    -0.80700
O1172       O  0.77989265  0.00739169  0.95993046    -0.65400
O1173       O  0.76119854  0.99337155  0.93190995    -1.12000
C1174       C  0.62752765  0.00575121  0.94188630     1.06200
O1175       O  0.73557973  0.98123000  0.96272596    -0.78600
O1176       O  0.68110996  0.96352614  0.95090272    -0.66200
Ni1177     Ni  0.79093159  0.00581834  0.92113609     1.34900
C1178       C  0.68709569  0.95535510  0.94217282     0.84900
O1179       O  0.82897736  0.99556927  0.94438541    -0.79100
O1180       O  0.83885002  0.99651086  0.92743826    -0.89400
C1181       C  0.76151216  0.99454038  0.96608535     0.84500
O1182       O  0.79681733  0.03534531  0.92648313    -0.67600
O1183       O  0.63988406  0.00281910  0.95095272    -0.86900
C1184       C  0.79264718  0.04427155  0.93515651     0.85300
C1185       C  0.85112492  0.99409043  0.93652547     1.06900
H1186       H  0.71275140  0.02281666  0.94686000     0.38700
O1187       O  0.71715208  0.00677809  0.94613649    -1.09500
O1188       O  0.69733115  0.96723484  0.93459495    -0.66200
Ni1189     Ni  0.70536189  0.99910368  0.93247058     1.26300
O1190       O  0.78214238  0.03323102  0.94304622    -0.66400
O1191       O  0.64948915  0.00463886  0.93397052    -0.78700
C1192       C  0.71726075  0.00272592  0.91160223     0.84700
O1193       O  0.69714248  0.99266294  0.91835594    -0.65900
Ni1194     Ni  0.68842239  0.99253751  0.95667976     1.27400
Ni1195     Ni  0.77294211  0.00133645  0.94561885     1.26100
H1196       H  0.76523877  0.97727328  0.93142884     0.39300
O1197       O  0.15225362  0.01825857  0.83864616    -0.80700
O1198       O  0.11637612  0.01026945  0.79294351    -0.65400
O1199       O  0.13066573  0.99515324  0.82115895    -1.12000
C1200       C  0.26606832  0.99447397  0.81179805     1.06200
O1201       O  0.15374323  0.98091300  0.78992980    -0.78600
O1202       O  0.19607972  0.95749413  0.80273630    -0.66200
Ni1203     Ni  0.10440997  0.01050687  0.83172261     1.34900
C1204       C  0.19000926  0.95069465  0.81171339     0.84900
O1205       O  0.06454936  0.00262962  0.80852657    -0.79100
O1206       O  0.05494751  0.00391715  0.82550452    -0.89400
C1207       C  0.13194063  0.99661960  0.78666723     0.84500
O1208       O  0.10427291  0.03976314  0.82588260    -0.67600
O1209       O  0.25295473  0.99061396  0.80288662    -0.86900
C1210       C  0.11127346  0.04789930  0.81715774     0.85300
C1211       C  0.04227931  0.00259096  0.81639824     1.06900
H1212       H  0.18677820  0.01935334  0.80591777     0.38700
O1213       O  0.17804540  0.00397391  0.80690469    -1.09500
O1214       O  0.18764524  0.96381555  0.81927691    -0.66200
Ni1215     Ni  0.18715113  0.99616547  0.82083248     1.26300
O1216       O  0.12022741  0.03587855  0.80949633    -0.66400
O1217       O  0.24402838  0.99708961  0.81961731    -0.78700
C1218       C  0.17729405  0.00373333  0.84152525     0.84700
O1219       O  0.19244260  0.99018799  0.83516623    -0.65900
Ni1220     Ni  0.20252857  0.98636590  0.79668979     1.27400
Ni1221     Ni  0.12142408  0.00355277  0.80731353     1.26100
H1222       H  0.12254927  0.97958319  0.82180560     0.39300
O1223       O  0.65061877  0.01914660  0.83853729    -0.80700
O1224       O  0.61273460  0.01065915  0.79293997    -0.65400
O1225       O  0.63301237  0.99664453  0.82092207    -1.12000
C1226       C  0.76622314  0.00951349  0.81043119     1.06200
O1227       O  0.65811322  0.98527035  0.78977725    -0.78600
O1228       O  0.71461709  0.96837150  0.80143454    -0.66200
Ni1229     Ni  0.60408769  0.00937476  0.83174089     1.34900
C1230       C  0.70868684  0.95950641  0.81005543     0.84900
O1231       O  0.56468641  0.99836916  0.80872500    -0.79100
O1232       O  0.55566599  0.00008760  0.82569621    -0.89400
C1233       C  0.63103119  0.99817951  0.78665552     0.84500
O1234       O  0.59869152  0.03890471  0.82623975    -0.67600
O1235       O  0.75294816  0.00818694  0.80138280    -0.86900
C1236       C  0.60220858  0.04772551  0.81749073     0.85300
C1237       C  0.54303508  0.99693894  0.81669457     1.06900
H1238       H  0.68011164  0.02650035  0.80596082     0.38700
O1239       O  0.67615147  0.01043662  0.80654862    -1.09500
O1240       O  0.69654243  0.97050228  0.81769142    -0.66200
Ni1241     Ni  0.68881740  0.00223366  0.82013663     1.26300
O1242       O  0.61114614  0.03645861  0.80959500    -0.66400
O1243       O  0.74487875  0.00741569  0.81843435    -0.78700
C1244       C  0.67796074  0.00570778  0.84102955     0.84700
O1245       O  0.69752997  0.99538921  0.83425057    -0.65900
Ni1246     Ni  0.70480367  0.99728915  0.79577508     1.27400
Ni1247     Ni  0.62054185  0.00458254  0.80723004     1.26100
H1248       H  0.62892927  0.98067156  0.82150418     0.39300
O1249       O  0.11481679  0.51656734  0.21002909    -0.80700
O1250       O  0.07542363  0.50879583  0.16542429    -0.65400
O1251       O  0.08861485  0.49316637  0.19352112    -1.12000
C1252       C  0.22330573  0.48709331  0.18388470     1.06200
O1253       O  0.10948620  0.47818524  0.16175868    -0.78600
O1254       O  0.15026538  0.45325302  0.17483876    -0.66200
Ni1255     Ni  0.06503473  0.51023603  0.20398068     1.34900
C1256       C  0.14521616  0.44626873  0.18384668     0.84900
O1257       O  0.02346720  0.50452849  0.18120132    -0.79100
O1258       O  0.01413401  0.50544827  0.19820022    -0.89400
C1259       C  0.08697311  0.49417292  0.15901835     0.84500
O1260       O  0.06813842  0.53911805  0.19800277    -0.67600
O1261       O  0.20966221  0.48410442  0.17494882    -0.86900
C1262       C  0.07932710  0.54656122  0.18947899     0.85300
C1263       C  0.00121991  0.50506871  0.18909626     1.06900
H1264       H  0.14752350  0.51455156  0.17820516     0.38700
O1265       O  0.13661449  0.49963305  0.17916247    -1.09500
O1266       O  0.14264037  0.45929011  0.19148331    -0.66200
Ni1267     Ni  0.14516310  0.49172553  0.19311167     1.26300
O1268       O  0.08612356  0.53407453  0.18186146    -0.66400
O1269       O  0.20181954  0.49044016  0.19175008    -0.78700
C1270       C  0.13594514  0.50095762  0.21361597     0.84700
O1271       O  0.15005959  0.48616484  0.20762480    -0.65900
Ni1272     Ni  0.15873462  0.48181096  0.16875126     1.27400
Ni1273     Ni  0.08030649  0.50204534  0.17974172     1.26100
H1274       H  0.07847682  0.47800483  0.19423584     0.39300
O1275       O  0.60757181  0.51764642  0.20983685    -0.80700
O1276       O  0.56914571  0.50142200  0.16606806    -0.65400
O1277       O  0.59024874  0.49034413  0.19404899    -1.12000
C1278       C  0.72365367  0.50429056  0.18412038     1.06200
O1279       O  0.61875403  0.47910540  0.16191244    -0.78600
O1280       O  0.67261610  0.46189316  0.17491492    -0.66200
Ni1281     Ni  0.56090775  0.50487801  0.20432930     1.34900
C1282       C  0.66997649  0.45374822  0.18381801     0.84900
O1283       O  0.52179223  0.49072566  0.18201105    -0.79100
O1284       O  0.51286034  0.49322498  0.19899216    -0.89400
C1285       C  0.58887275  0.49077235  0.15943306     0.84500
O1286       O  0.55148955  0.53299384  0.19793351    -0.67600
O1287       O  0.71147566  0.50146553  0.17504689    -0.86900
C1288       C  0.55729217  0.54083174  0.18912352     0.85300
C1289       C  0.50009816  0.48980892  0.19000853     1.06900
H1290       H  0.63663155  0.51927848  0.17872416     0.38700
O1291       O  0.63344657  0.50317398  0.17951423    -1.09500
O1292       O  0.65738459  0.46490649  0.19143966    -0.66200
Ni1293     Ni  0.64580695  0.49670253  0.19338441     1.26300
O1294       O  0.56865800  0.52878484  0.18172878    -0.66400
O1295       O  0.70144387  0.50314076  0.19198139    -0.78700
C1296       C  0.63311682  0.50478766  0.21370570     0.84700
O1297       O  0.65317008  0.49207243  0.20786838    -0.65900
Ni1298     Ni  0.66396007  0.49068045  0.16892433     1.27400
Ni1299     Ni  0.57780242  0.49672090  0.18028159     1.26100
H1300       H  0.58679332  0.47430144  0.19507798     0.39300
O1301       O  0.00469160  0.51476643  0.03834972    -0.80700
O1302       O  0.05153905  0.50336426  0.08190469    -0.65400
O1303       O  0.03257314  0.48967261  0.05401225    -1.12000
C1304       C  0.89888087  0.48741734  0.06505001     1.06200
O1305       O  0.01465747  0.47421528  0.08617261    -0.78600
O1306       O  0.96908388  0.45099939  0.07332459    -0.66200
Ni1307     Ni  0.05535609  0.50719031  0.04352188     1.34900
C1308       C  0.97303229  0.44401282  0.06428728     0.84900
O1309       O  0.10018215  0.49811562  0.06559947    -0.79100
O1310       O  0.10700253  0.50078393  0.04853322    -0.89400
C1311       C  0.03894285  0.48959683  0.08856463     0.84500
O1312       O  0.05576801  0.53573333  0.04989148    -0.67600
O1313       O  0.91340944  0.48423327  0.07388767    -0.86900
C1314       C  0.04796361  0.54275774  0.05871590     0.85300
C1315       C  0.12118188  0.49912729  0.05748651     1.06900
H1316       H  0.97815769  0.51204591  0.06993559     0.38700
O1317       O  0.98734089  0.49683609  0.06890244    -1.09500
O1318       O  0.97648898  0.45703919  0.05663282    -0.66200
Ni1319     Ni  0.97607557  0.48952628  0.05503068     1.26300
O1320       O  0.04114183  0.52973968  0.06617035    -0.66400
O1321       O  0.91955791  0.48953227  0.05694314    -0.78700
C1322       C  0.98385355  0.49929026  0.03461326     0.84700
O1323       O  0.96911552  0.48450802  0.04055540    -0.65900
Ni1324     Ni  0.96485672  0.47970202  0.07956813     1.27400
Ni1325     Ni  0.04368328  0.49738828  0.06772049     1.26100
H1326       H  0.04154730  0.47435554  0.05299466     0.39300
O1327       O  0.51695454  0.51455939  0.03850321    -0.80700
O1328       O  0.54751216  0.50367164  0.08293540    -0.65400
O1329       O  0.53265793  0.48922233  0.05503220    -1.12000
C1330       C  0.39729659  0.50306859  0.06241503     1.06200
O1331       O  0.49679292  0.48231165  0.08740991    -0.78600
O1332       O  0.44955834  0.46154482  0.07381363    -0.66200
Ni1333     Ni  0.56314391  0.50329156  0.04482553     1.34900
C1334       C  0.45430608  0.45255834  0.06514921     0.84900
O1335       O  0.59848255  0.49167775  0.06796203    -0.79100
O1336       O  0.61029858  0.49291396  0.05105038    -0.89400
C1337       C  0.52676539  0.49404282  0.08970421     0.84500
O1338       O  0.57039906  0.53217230  0.05064408    -0.67600
O1339       O  0.40742600  0.50027952  0.07164887    -0.86900
C1340       C  0.56373776  0.54054555  0.05928858     0.85300
C1341       C  0.62157874  0.49044718  0.06023370     1.06900
H1342       H  0.48231459  0.51943321  0.06888605     0.38700
O1343       O  0.48607455  0.50329794  0.06855657    -1.09500
O1344       O  0.46604522  0.46343730  0.05733560    -0.66200
Ni1345     Ni  0.47695565  0.49504332  0.05466346     1.26300
O1346       O  0.55105171  0.52905202  0.06673850    -0.66400
O1347       O  0.42108992  0.50148405  0.05491499    -0.78700
C1348       C  0.49419201  0.50040064  0.03446742     0.84700
O1349       O  0.47304267  0.48818970  0.04026689    -0.65900
Ni1350     Ni  0.45352149  0.49148598  0.07896953     1.27400
Ni1351     Ni  0.54193931  0.49722503  0.06877599     1.26100
H1352       H  0.53694181  0.47317418  0.05442427     0.39300
O1353       O  0.27437063  0.23179991  0.21192174    -0.80700
O1354       O  0.31109151  0.23931288  0.16758779    -0.65400
O1355       O  0.29258645  0.25631414  0.19512335    -1.12000
C1356       C  0.15883787  0.24526535  0.18524074     1.06200
O1357       O  0.26809606  0.26565125  0.16356345    -0.78600
O1358       O  0.21433973  0.28558797  0.17560396    -0.66200
Ni1359     Ni  0.32143835  0.24319225  0.20588808     1.34900
C1360       C  0.21704464  0.29417834  0.18437853     0.84900
O1361       O  0.36041794  0.25111192  0.18307318    -0.79100
O1362       O  0.36975196  0.25354022  0.20004340    -0.89400
C1363       C  0.29444697  0.25164330  0.16094463     0.84500
O1364       O  0.33018547  0.21388431  0.20057590    -0.67600
O1365       O  0.17160941  0.24745594  0.17616909    -0.86900
C1366       C  0.32153861  0.20454984  0.19224447     0.85300
C1367       C  0.38239623  0.25397599  0.19090556     1.06900
H1368       H  0.24262468  0.22697096  0.18057008     0.38700
O1369       O  0.24803852  0.24292234  0.18106035    -1.09500
O1370       O  0.22780089  0.28310905  0.19220409    -0.66200
Ni1371     Ni  0.23661653  0.25128341  0.19467707     1.26300
O1372       O  0.30907972  0.21536508  0.18456145    -0.66400
O1373       O  0.18058658  0.24619136  0.19321592    -0.78700
C1374       C  0.24838566  0.24517788  0.21521313     0.84700
O1375       O  0.22961162  0.25763085  0.20897337    -0.65900
Ni1376     Ni  0.22052423  0.25618855  0.17016938     1.27400
Ni1377     Ni  0.30394032  0.24707287  0.18163997     1.26100
H1378       H  0.29730894  0.27238226  0.19546175     0.39300
O1379       O  0.77134768  0.23236785  0.21174826    -0.80700
O1380       O  0.80822237  0.23798288  0.16732045    -0.65400
O1381       O  0.79476509  0.25586620  0.19490390    -1.12000
C1382       C  0.65964418  0.25683248  0.18571822     1.06200
O1383       O  0.77104718  0.26680654  0.16269532    -0.78600
O1384       O  0.73038394  0.29252331  0.17562912    -0.66200
Ni1385     Ni  0.82023072  0.24012043  0.20554977     1.34900
C1386       C  0.73488625  0.30019743  0.18453295     0.84900
O1387       O  0.86000413  0.24620513  0.18260304    -0.79100
O1388       O  0.87008470  0.24660986  0.19958498    -0.89400
C1389       C  0.79480066  0.25100011  0.16049071     0.84500
O1390       O  0.82089051  0.21069770  0.20006015    -0.67600
O1391       O  0.67242059  0.26019191  0.17671504    -0.86900
C1392       C  0.81028386  0.20246516  0.19166031     0.85300
C1393       C  0.88243801  0.24706989  0.19043071     1.06900
H1394       H  0.73759122  0.23154731  0.18016578     0.38700
O1395       O  0.74684869  0.24660893  0.18081720    -1.09500
O1396       O  0.73768210  0.28769324  0.19238428    -0.66200
Ni1397     Ni  0.73834892  0.25535343  0.19462572     1.26300
O1398       O  0.80123830  0.21435140  0.18399096    -0.66400
O1399       O  0.68182032  0.25460140  0.19351919    -0.78700
C1400       C  0.74909824  0.24763883  0.21513044     0.84700
O1401       O  0.73370934  0.26172467  0.20897743    -0.65900
Ni1402     Ni  0.72273954  0.26315111  0.17017978     1.27400
Ni1403     Ni  0.80322242  0.24627094  0.18131612     1.26100
H1404       H  0.80342784  0.27129518  0.19533981     0.39300
O1405       O  0.35000282  0.22987313  0.03884788    -0.80700
O1406       O  0.31675833  0.23673602  0.08351849    -0.65400
O1407       O  0.32834880  0.25387628  0.05563180    -1.12000
C1408       C  0.46385573  0.25512175  0.06418225     1.06200
O1409       O  0.35342667  0.26616399  0.08744470    -0.78600
O1410       O  0.39240926  0.29129053  0.07402321    -0.66200
Ni1411     Ni  0.30177293  0.23826491  0.04520808     1.34900
C1412       C  0.38858513  0.29857434  0.06502164     0.84900
O1413       O  0.26366878  0.24423364  0.06827734    -0.79100
O1414       O  0.25253228  0.24539775  0.05134267    -0.89400
C1415       C  0.33049280  0.25028933  0.09009014     0.84500
O1416       O  0.30000656  0.20896599  0.05094146    -0.67600
O1417       O  0.45135485  0.25957111  0.07310917    -0.86900
C1418       C  0.31124562  0.20048443  0.05927223     0.85300
C1419       C  0.24070035  0.24545002  0.06054554     1.06900
H1420       H  0.38669532  0.22981400  0.07044011     0.38700
O1421       O  0.37706084  0.24505099  0.06957492    -1.09500
O1422       O  0.38632534  0.28567124  0.05733121    -0.66200
Ni1423     Ni  0.38481148  0.25311704  0.05562262     1.26300
O1424       O  0.32271282  0.21230719  0.06674880    -0.66400
O1425       O  0.44138640  0.25192572  0.05651481    -0.78700
C1426       C  0.37261034  0.24477918  0.03523540     0.84700
O1427       O  0.38875732  0.25887501  0.04118872    -0.65900
Ni1428     Ni  0.40137392  0.26240053  0.07983909     1.27400
Ni1429     Ni  0.32070119  0.24445176  0.06932559     1.26100
H1430       H  0.31986181  0.26944062  0.05516823     0.39300
O1431       O  0.85310883  0.22614801  0.03939439    -0.80700
O1432       O  0.81083975  0.23684923  0.08338143    -0.65400
O1433       O  0.83057679  0.25118889  0.05554679    -1.12000
C1434       C  0.96427709  0.24308900  0.06621603     1.06200
O1435       O  0.85296602  0.26386019  0.08687809    -0.78600
O1436       O  0.90726898  0.28324752  0.07487293    -0.66200
Ni1437     Ni  0.80426373  0.23608573  0.04492640     1.34900
C1438       C  0.90302367  0.29139627  0.06602990     0.84900
O1439       O  0.76241026  0.24651971  0.06736547    -0.79100
O1440       O  0.75429434  0.24484254  0.05031665    -0.89400
C1441       C  0.82736759  0.24968589  0.08979804     0.84500
O1442       O  0.79952661  0.20714225  0.05082449    -0.67600
O1443       O  0.95108318  0.24530428  0.07524619    -0.86900
C1444       C  0.80663360  0.19909775  0.05952864     0.85300
C1445       C  0.74099695  0.24722077  0.05932697     1.06900
H1446       H  0.88090688  0.22396864  0.07084433     0.38700
O1447       O  0.87482923  0.23981954  0.07009119    -1.09500
O1448       O  0.89234580  0.27974135  0.05842696    -0.66200
Ni1449     Ni  0.88674427  0.24760647  0.05641646     1.26300
O1450       O  0.81488130  0.21112540  0.06717708    -0.66400
O1451       O  0.94283828  0.24388053  0.05819670    -0.78700
C1452       C  0.87734771  0.24040690  0.03598923     0.84700
O1453       O  0.89468518  0.25355514  0.04214003    -0.65900
Ni1454     Ni  0.90139507  0.25421651  0.08081952     1.27400
Ni1455     Ni  0.81871768  0.24320950  0.06919789     1.26100
H1456       H  0.82459006  0.26704182  0.05474164     0.39300
O1457       O  0.35788008  0.01614903  0.21312628    -0.80700
O1458       O  0.32024049  0.00829668  0.16857311    -0.65400
O1459       O  0.33451001  0.99249732  0.19653502    -1.12000
C1460       C  0.47010183  0.99537188  0.18716793     1.06200
O1461       O  0.35993723  0.98012407  0.16499736    -0.78600
O1462       O  0.40816104  0.95798879  0.17734528    -0.66200
Ni1463     Ni  0.30888669  0.00886867  0.20693091     1.34900
C1464       C  0.40185396  0.94953225  0.18603099     0.84900
O1465       O  0.26893667  0.99981078  0.18400876    -0.79100
O1466       O  0.25877849  0.00273617  0.20093578    -0.89400
C1467       C  0.33544598  0.99495748  0.16215011     0.84500
O1468       O  0.31009881  0.03820810  0.20122328    -0.67600
O1469       O  0.45764863  0.99371489  0.17805034    -0.86900
C1470       C  0.31825404  0.04589982  0.19252117     0.85300
C1471       C  0.24650097  0.00018321  0.19184416     1.06900
H1472       H  0.38997519  0.01807028  0.18194109     0.38700
O1473       O  0.38198499  0.00246265  0.18248461    -1.09500
O1474       O  0.39344985  0.96126408  0.19384218    -0.66200
Ni1475     Ni  0.39105751  0.99358404  0.19625917     1.26300
O1476       O  0.32473636  0.03347033  0.18487753    -0.66400
O1477       O  0.44779901  0.99523958  0.19504755    -0.78700
C1478       C  0.37941914  0.00077261  0.21675965     0.84700
O1479       O  0.39570289  0.98683432  0.21070629    -0.65900
Ni1480     Ni  0.40807406  0.98748196  0.17181035     1.27400
Ni1481     Ni  0.32558910  0.00125953  0.18278927     1.26100
H1482       H  0.32633521  0.97694557  0.19724178     0.39300
O1483       O  0.86014956  0.01618221  0.21214820    -0.80700
O1484       O  0.81800737  0.00755606  0.16862958    -0.65400
O1485       O  0.83587889  0.99113734  0.19624311    -1.12000
C1486       C  0.97014235  0.99356211  0.18612705     1.06200
O1487       O  0.85751935  0.97960901  0.16436207    -0.78600
O1488       O  0.90422086  0.95637287  0.17664385    -0.66200
Ni1489     Ni  0.81066890  0.00681013  0.20685990     1.34900
C1490       C  0.90012076  0.94817941  0.18547669     0.84900
O1491       O  0.76875202  0.99908926  0.18446401    -0.79100
O1492       O  0.76034371  0.99875743  0.20152669    -0.89400
C1493       C  0.83168280  0.99417300  0.16201038     0.84500
O1494       O  0.80589307  0.03589676  0.20107043    -0.67600
O1495       O  0.95702761  0.99092863  0.17711753    -0.86900
C1496       C  0.81507597  0.04413962  0.19254423     0.85300
C1497       C  0.74708879  0.99802779  0.19244928     1.06900
H1498       H  0.88975424  0.01677454  0.18112672     0.38700
O1499       O  0.88167460  0.00119498  0.18184145    -1.09500
O1500       O  0.89509575  0.96027295  0.19338528    -0.66200
Ni1501     Ni  0.89224100  0.99277300  0.19557748     1.26300
O1502       O  0.82549926  0.03222677  0.18503350    -0.66400
O1503       O  0.94842402  0.99472408  0.19405522    -0.78700
C1504       C  0.88314439  0.00163639  0.21586424     0.84700
O1505       O  0.89876714  0.98709622  0.20999548    -0.65900
Ni1506     Ni  0.90642414  0.98584396  0.17108290     1.27400
Ni1507     Ni  0.82535646  0.00017241  0.18269606     1.26100
H1508       H  0.82823752  0.97547755  0.19689355     0.39300
O1509       O  0.26990896  0.01108493  0.04077662    -0.80700
O1510       O  0.31257618  0.00531440  0.08493035    -0.65400
O1511       O  0.29641991  0.98816214  0.05735266    -1.12000
C1512       C  0.16188239  0.98741435  0.06781526     1.06200
O1513       O  0.27608522  0.97617920  0.08942249    -0.78600
O1514       O  0.22917896  0.95198712  0.07726594    -0.66200
Ni1515     Ni  0.31999383  0.00463928  0.04662027     1.34900
C1516       C  0.23432663  0.94373886  0.06849459     0.84900
O1517       O  0.36276702  0.99840251  0.06924579    -0.79100
O1518       O  0.37126805  0.99947554  0.05222520    -0.89400
C1519       C  0.30041273  0.99164713  0.09165954     0.84500
O1520       O  0.31816574  0.03412778  0.05212565    -0.67600
O1521       O  0.17569372  0.98585614  0.07681101    -0.86900
C1522       C  0.30919948  0.04186463  0.06075108     0.85300
C1523       C  0.38458049  0.99874592  0.06129290     1.06900
H1524       H  0.24042388  0.01237652  0.07231519     0.38700
O1525       O  0.24985874  0.99703526  0.07175252    -1.09500
O1526       O  0.24028529  0.95570102  0.06058425    -0.66200
Ni1527     Ni  0.23985296  0.98796564  0.05810112     1.26300
O1528       O  0.30315077  0.02956087  0.06847921    -0.66400
O1529       O  0.18316108  0.98814201  0.05975701    -0.78700
C1530       C  0.24819954  0.99543121  0.03752871     0.84700
O1531       O  0.23387566  0.98117240  0.04378193    -0.65900
Ni1532     Ni  0.22658369  0.98148841  0.08272873     1.27400
Ni1533     Ni  0.30615254  0.99761881  0.07091046     1.26100
H1534       H  0.30558074  0.97286319  0.05676163     0.39300
O1535       O  0.77779412  0.01457810  0.04086321    -0.80700
O1536       O  0.81240652  0.00450141  0.08515801    -0.65400
O1537       O  0.79641800  0.98926133  0.05742850    -1.12000
C1538       C  0.66149448  0.99899597  0.06656415     1.06200
O1539       O  0.76858733  0.97841444  0.08900059    -0.78600
O1540       O  0.71672259  0.95870093  0.07636710    -0.66200
Ni1541     Ni  0.82499198  0.00376331  0.04700176     1.34900
C1542       C  0.72168569  0.95014428  0.06763912     0.84900
O1543       O  0.86306305  0.99354361  0.06994279    -0.79100
O1544       O  0.87321223  0.99401651  0.05296378    -0.89400
C1545       C  0.79511887  0.99224319  0.09167236     0.84500
O1546       O  0.83108372  0.03275063  0.05276059    -0.67600
O1547       O  0.67334750  0.99694929  0.07572838    -0.86900
C1548       C  0.82262072  0.04115190  0.06128909     0.85300
C1549       C  0.88535133  0.99193098  0.06209757     1.06900
H1550       H  0.74479908  0.01748940  0.07191831     0.38700
O1551       O  0.75041900  0.00154809  0.07139479    -1.09500
O1552       O  0.73306764  0.96145622  0.05994233    -0.66200
Ni1553     Ni  0.74035462  0.99348266  0.05765387     1.26300
O1554       O  0.81163665  0.02947676  0.06884438    -0.66400
O1555       O  0.68405473  0.99774665  0.05876562    -0.78700
C1556       C  0.75313566  0.00080555  0.03728716     0.84700
O1557       O  0.73482710  0.98757607  0.04329094    -0.65900
Ni1558     Ni  0.72172997  0.98799154  0.08203098     1.27400
Ni1559     Ni  0.80646116  0.99754826  0.07109422     1.26100
H1560       H  0.80196036  0.97331850  0.05683280     0.39300
O1561       O  0.01626207  0.72876149  0.21063378    -0.80700
O1562       O  0.05728396  0.73970365  0.16684363    -0.65400
O1563       O  0.03526581  0.75503665  0.19444344    -1.12000
C1564       C  0.90218708  0.74333166  0.18430987     1.06200
O1565       O  0.01066140  0.76312101  0.16187383    -0.78600
O1566       O  0.96081419  0.78483961  0.17453953    -0.66200
Ni1567     Ni  0.06345428  0.74120950  0.20520803     1.34900
C1568       C  0.96204976  0.79291915  0.18346193     0.84900
O1569       O  0.10429656  0.75168989  0.18286243    -0.79100
O1570       O  0.11183970  0.75261478  0.19995136    -0.89400
C1571       C  0.03776282  0.74914871  0.15976573     0.84500
O1572       O  0.07425313  0.71256847  0.19944607    -0.67600
O1573       O  0.91476744  0.74737982  0.17536417    -0.86900
C1574       C  0.06746415  0.70400990  0.19084381     0.85300
C1575       C  0.12538739  0.75388314  0.19092108     1.06900
H1576       H  0.98775988  0.72576274  0.17928122     0.38700
O1577       O  0.99220255  0.74179700  0.17995619    -1.09500
O1578       O  0.96965085  0.78108291  0.19134540    -0.66200
Ni1579     Ni  0.97962267  0.74920144  0.19371131     1.26300
O1580       O  0.05479486  0.71527082  0.18333825    -0.66400
O1581       O  0.92406163  0.74308951  0.19222925    -0.78700
C1582       C  0.99077792  0.74203121  0.21420156     0.84700
O1583       O  0.97166365  0.75467959  0.20809737    -0.65900
Ni1584     Ni  0.96375304  0.75509191  0.16910855     1.27400
Ni1585     Ni  0.04813421  0.74696742  0.18089699     1.26100
H1586       H  0.03929898  0.77110231  0.19508190     0.39300
O1587       O  0.51197172  0.72937204  0.21056704    -0.80700
O1588       O  0.55256171  0.73702095  0.16590416    -0.65400
O1589       O  0.53713728  0.75255559  0.19383723    -1.12000
C1590       C  0.40154648  0.74925911  0.18428500     1.06200
O1591       O  0.51155642  0.76449787  0.16189010    -0.78600
O1592       O  0.46094889  0.78632978  0.17425072    -0.66200
Ni1593     Ni  0.56143640  0.73583205  0.20439797     1.34900
C1594       C  0.46710388  0.79512993  0.18287294     0.84900
O1595       O  0.60369364  0.74467710  0.18159164    -0.79100
O1596       O  0.61211193  0.74098733  0.19856297    -0.89400
C1597       C  0.53696831  0.74989255  0.15928166     0.84500
O1598       O  0.55869357  0.70659721  0.19870687    -0.67600
O1599       O  0.41411036  0.74974462  0.17513114    -0.86900
C1600       C  0.55170260  0.69908168  0.18992035     0.85300
C1601       C  0.62546183  0.74336019  0.18955785     1.06900
H1602       H  0.48244584  0.72699861  0.17932086     0.38700
O1603       O  0.49024988  0.74259490  0.17968848    -1.09500
O1604       O  0.47828419  0.78387488  0.19062693    -0.66200
Ni1605     Ni  0.48058813  0.75170863  0.19334905     1.26300
O1606       O  0.54708854  0.71162954  0.18220071    -0.66400
O1607       O  0.42387499  0.75029221  0.19211735    -0.78700
C1608       C  0.49050140  0.74506617  0.21388115     0.84700
O1609       O  0.47517389  0.75891790  0.20761796    -0.65900
Ni1610     Ni  0.46356423  0.75670814  0.16884997     1.27400
Ni1611     Ni  0.54676899  0.74382762  0.18012600     1.26100
H1612       H  0.54549964  0.76805634  0.19457228     0.39300
O1613       O  0.11395367  0.72909398  0.03791314    -0.80700
O1614       O  0.07416071  0.73628632  0.08260024    -0.65400
O1615       O  0.09501509  0.75306575  0.05505480    -1.12000
C1616       C  0.22878153  0.74159048  0.06407207     1.06200
O1617       O  0.12365193  0.75675064  0.08847676    -0.78600
O1618       O  0.16861971  0.78073423  0.07536093    -0.66200
Ni1619     Ni  0.06672627  0.73937284  0.04428341     1.34900
C1620       C  0.16791628  0.78971395  0.06658511     0.84900
O1621       O  0.02714076  0.74995766  0.06715501    -0.79100
O1622       O  0.01776914  0.74842059  0.05017902    -0.89400
C1623       C  0.09352557  0.74450014  0.08995350     0.84500
O1624       O  0.06124675  0.70985644  0.04967209    -0.67600
O1625       O  0.21697339  0.74458359  0.07314350    -0.86900
C1626       C  0.06644830  0.70110131  0.05834118     0.85300
C1627       C  0.00519577  0.75112178  0.05923024     1.06900
H1628       H  0.14311307  0.72227956  0.06950756     0.38700
O1629       O  0.13893472  0.73837275  0.06918313    -1.09500
O1630       O  0.16092325  0.77881429  0.05845310    -0.66200
Ni1631     Ni  0.15053849  0.74743312  0.05543959     1.26300
O1632       O  0.07526845  0.71249559  0.06613370    -0.66400
O1633       O  0.20606565  0.74142384  0.05635797    -0.78700
C1634       C  0.13972351  0.74282819  0.03480281     0.84700
O1635       O  0.15761727  0.75511044  0.04121785    -0.65900
Ni1636     Ni  0.16869222  0.75038977  0.08011337     1.27400
Ni1637     Ni  0.08310191  0.74419839  0.06864099     1.26100
H1638       H  0.09067516  0.76912691  0.05451664     0.39300
O1639       O  0.61884493  0.72816883  0.03779791    -0.80700
O1640       O  0.57570678  0.73560940  0.08208974    -0.65400
O1641       O  0.59323948  0.75191886  0.05428575    -1.12000
C1642       C  0.72774534  0.75269415  0.06433143     1.06200
O1643       O  0.61467231  0.76349820  0.08682175    -0.78600
O1644       O  0.65790785  0.78814234  0.07387109    -0.66200
Ni1645     Ni  0.56914066  0.73549472  0.04363056     1.34900
C1646       C  0.65533847  0.79597643  0.06492726     0.84900
O1647       O  0.52622450  0.74342704  0.06615157    -0.79100
O1648       O  0.51831864  0.74187404  0.04910716    -0.89400
C1649       C  0.58894550  0.74863296  0.08892675     0.84500
O1650       O  0.56937221  0.70613834  0.04945958    -0.67600
O1651       O  0.71422754  0.75558371  0.07328843    -0.86900
C1652       C  0.57780632  0.69847776  0.05817181     0.85300
C1653       C  0.50480494  0.74360325  0.05811459     1.06900
H1654       H  0.64813138  0.72736355  0.06959361     0.38700
O1655       O  0.63935162  0.74276576  0.06881925    -1.09500
O1656       O  0.65142484  0.78364454  0.05708151    -0.66200
Ni1657     Ni  0.64965473  0.75123115  0.05499264     1.26300
O1658       O  0.58421982  0.71092770  0.06579562    -0.66400
O1659       O  0.70609427  0.75017235  0.05645738    -0.78700
C1660       C  0.64077078  0.74367045  0.03444036     0.84700
O1661       O  0.65582039  0.75764467  0.04064214    -0.65900
Ni1662     Ni  0.66335960  0.75888574  0.07954383     1.27400
Ni1663     Ni  0.58288884  0.74302038  0.06794933     1.26100
H1664       H  0.58482094  0.76742735  0.05354388     0.39300
C1665       C  0.90090171  0.75515506  0.05616636     0.20600
C1666       C  0.86519718  0.75322123  0.05084964    -0.39300
C1667       C  0.83098835  0.75354534  0.05681159     0.19500
C1668       C  0.83238727  0.75576859  0.06726276     0.22200
C1669       C  0.86811530  0.75773031  0.07258178    -0.39800
C1670       C  0.90237453  0.75724899  0.06662327     0.21000
N1671       N  0.93734507  0.75390145  0.05228966    -0.33100
C1672       C  0.96242707  0.75490821  0.06030421    -0.10700
C1673       C  0.94168082  0.75721385  0.06940067    -0.29500
N1674       N  0.79592519  0.75538786  0.07119480    -0.46100
C1675       C  0.77099787  0.75285590  0.06321944    -0.05300
C1676       C  0.79181934  0.75164952  0.05409347    -0.22700
H1677       H  0.86419317  0.75118895  0.04268650     0.19100
H1678       H  0.86916090  0.75908596  0.08077344     0.17900
H1679       H  0.95360173  0.75767969  0.07702035     0.14200
H1680       H  0.77993092  0.74983350  0.04651339     0.14000
H1681       H  0.94461747  0.75144510  0.04466121     0.32200
H1682       H  0.78845645  0.75688116  0.07886125     0.35000
C1683       C  0.40342535  0.74170131  0.06513242     0.20600
C1684       C  0.37113920  0.73738339  0.07144336    -0.39300
C1685       C  0.33426385  0.73799004  0.06670289     0.19500
C1686       C  0.32958582  0.74256749  0.05645304     0.22200
C1687       C  0.36195444  0.74693475  0.05011683    -0.39800
C1688       C  0.39897378  0.74624098  0.05486853     0.21000
N1689       N  0.44166127  0.74129512  0.06775221    -0.33100
C1690       C  0.46177792  0.74532463  0.05906035    -0.10700
C1691       C  0.43615141  0.74867706  0.05088408    -0.29500
N1692       N  0.29114866  0.74306858  0.05395090    -0.46100
C1693       C  0.27146602  0.73899006  0.06272961    -0.05300
C1694       C  0.29741961  0.73558943  0.07079411    -0.22700
H1695       H  0.37446280  0.73384374  0.07946918     0.19100
H1696       H  0.35860651  0.75056124  0.04209957     0.17900
H1697       H  0.44378285  0.75163000  0.04300713     0.14200
H1698       H  0.29020158  0.73285888  0.07871354     0.14000
H1699       H  0.45334396  0.73752412  0.07489832     0.32200
H1700       H  0.27909256  0.74710984  0.04687452     0.35000
C1701       C  0.55374239  0.75914145  0.13285342     0.20600
C1702       C  0.55588379  0.77194789  0.12390966    -0.39300
C1703       C  0.56118560  0.75972063  0.11493272     0.19500
C1704       C  0.56356976  0.73639670  0.11477277     0.22200
C1705       C  0.56178507  0.72350235  0.12379783    -0.39800
C1706       C  0.55710885  0.73584627  0.13286584     0.21000
N1707       N  0.54797453  0.76694669  0.14229233    -0.33100
C1708       C  0.54810586  0.74863387  0.14847719    -0.10700
C1709       C  0.55398190  0.72884857  0.14289930    -0.29500
N1710       N  0.57056737  0.72907674  0.10523300    -0.46100
C1711       C  0.57336827  0.74798586  0.09939105    -0.05300
C1712       C  0.56756511  0.76731671  0.10519798    -0.22700
H1713       H  0.55412940  0.79019862  0.12395444     0.19100
H1714       H  0.56437464  0.70528754  0.12377838     0.17900
H1715       H  0.55383592  0.71166750  0.14572688     0.14200
H1716       H  0.56999087  0.78470609  0.10271527     0.14000
H1717       H  0.54330244  0.78373597  0.14438942     0.32200
H1718       H  0.57591128  0.71246095  0.10297710     0.35000
C1719       C  0.80089007  0.73979899  0.19143985     0.20600
C1720       C  0.76814380  0.74187949  0.19785288    -0.39300
C1721       C  0.73138475  0.74253873  0.19298757     0.19500
C1722       C  0.72731381  0.74118957  0.18254342     0.22200
C1723       C  0.76005751  0.73902903  0.17613182    -0.39800
C1724       C  0.79682870  0.73843568  0.18099371     0.21000
N1725       N  0.83915694  0.74030565  0.19410745    -0.33100
C1726       C  0.85951509  0.73952963  0.18526236    -0.10700
C1727       C  0.83407672  0.73809754  0.17695479    -0.29500
N1728       N  0.68908826  0.74212174  0.17983196    -0.46100
C1729       C  0.66873468  0.74398202  0.18864663    -0.05300
C1730       C  0.69419488  0.74435157  0.19698279    -0.22700
H1731       H  0.77106962  0.74321969  0.20601525     0.19100
H1732       H  0.75719484  0.73824635  0.16795264     0.17900
H1733       H  0.84180304  0.73814120  0.16897654     0.14200
H1734       H  0.68642783  0.74530347  0.20494523     0.14000
H1735       H  0.85059636  0.74234247  0.20141184     0.32200
H1736       H  0.67757261  0.74097822  0.17249610     0.35000
C1737       C  0.30067428  0.75197076  0.19213568     0.20600
C1738       C  0.26859253  0.75511405  0.19872765    -0.39300
C1739       C  0.23138470  0.75626889  0.19405613     0.19500
C1740       C  0.22653902  0.75447512  0.18364628     0.22200
C1741       C  0.25850553  0.75133288  0.17709579    -0.39800
C1742       C  0.29552525  0.75012460  0.18174350     0.21000
N1743       N  0.33919832  0.75084724  0.19455487    -0.33100
C1744       C  0.35847568  0.74835599  0.18559341    -0.10700
C1745       C  0.33210422  0.74769884  0.17748227    -0.29500
N1746       N  0.18821172  0.75489028  0.18111001    -0.46100
C1747       C  0.16830495  0.75677733  0.18997188    -0.05300
C1748       C  0.19428289  0.75787189  0.19821046    -0.22700
H1749       H  0.27225674  0.75637799  0.20687257     0.19100
H1750       H  0.25480454  0.74977425  0.16896277     0.17900
H1751       H  0.33892137  0.74651083  0.16946907     0.14200
H1752       H  0.18692317  0.75839908  0.20620713     0.14000
H1753       H  0.35162033  0.75246782  0.20177381     0.32200
H1754       H  0.17631835  0.75277536  0.17385988     0.35000
C1755       C  0.03690173  0.74235834  0.13276103     0.20600
C1756       C  0.02141446  0.74441596  0.12288792    -0.39300
C1757       C  0.04803502  0.74058133  0.11491172     0.19500
C1758       C  0.08712811  0.73526711  0.11670379     0.22200
C1759       C  0.10230389  0.73258103  0.12656824    -0.39800
C1760       C  0.07566399  0.73630469  0.13453501     0.21000
N1761       N  0.01873732  0.74730516  0.14153919    -0.33100
C1762       C  0.04592705  0.74429687  0.14897823    -0.10700
C1763       C  0.08170995  0.73704508  0.14492564    -0.29500
N1764       N  0.10751870  0.73519981  0.10796899    -0.46100
C1765       C  0.08135253  0.74026172  0.10052639    -0.05300
C1766       C  0.04368989  0.74341597  0.10452188    -0.22700
H1767       H  0.99133611  0.74965648  0.12152228     0.19100
H1768       H  0.13307684  0.72891609  0.12793818     0.17900
H1769       H  0.10893655  0.73393416  0.14896632     0.14200
H1770       H  0.01750022  0.74872934  0.10048467     0.14000
H1771       H  0.98976240  0.75291254  0.14240680     0.32200
H1772       H  0.13780759  0.73272406  0.10714229     0.35000
C1773       C  0.66922523  0.85452661  0.06929431     0.20600
C1774       C  0.67531221  0.87317180  0.07554066    -0.39300
C1775       C  0.68996467  0.89240110  0.07074107     0.19500
C1776       C  0.69792398  0.89331508  0.06044316     0.22200
C1777       C  0.69189889  0.87441508  0.05411652    -0.39800
C1778       C  0.67724617  0.85485787  0.05898533     0.21000
N1779       N  0.65783664  0.83401529  0.07233401    -0.33100
C1780       C  0.65878530  0.82070147  0.06401215    -0.10700
C1781       C  0.67044177  0.83312298  0.05543902    -0.29500
N1782       N  0.71153851  0.91398401  0.05786510    -0.46100
C1783       C  0.71217108  0.92597487  0.06665671    -0.05300
C1784       C  0.69896344  0.91297401  0.07479187    -0.22700
H1785       H  0.66960236  0.87261567  0.08362851     0.19100
H1786       H  0.69864527  0.87479653  0.04608402     0.17900
H1787       H  0.67582916  0.82681013  0.04786050     0.14200
H1788       H  0.69557304  0.91807080  0.08263412     0.14000
H1789       H  0.65182435  0.82909225  0.07980448     0.32200
H1790       H  0.71920965  0.91966688  0.05061140     0.35000
C1791       C  0.48912586  0.99919722  0.05826117     0.20600
C1792       C  0.52488016  0.99784769  0.05293718    -0.39300
C1793       C  0.55899646  0.00081273  0.05877126     0.19500
C1794       C  0.55743291  0.00490477  0.06910701     0.22200
C1795       C  0.52167010  0.00633032  0.07442697    -0.39800
C1796       C  0.48756332  0.00319830  0.06860346     0.21000
N1797       N  0.45275846  0.99665928  0.05446585    -0.33100
C1798       C  0.42773373  0.99892116  0.06243147    -0.10700
C1799       C  0.44836057  0.00302543  0.07140593    -0.29500
N1800       N  0.59383452  0.00583529  0.07302219    -0.46100
C1801       C  0.61887053  0.00223462  0.06515799    -0.05300
C1802       C  0.59823310  0.99916661  0.05610718    -0.22700
H1803       H  0.52604448  0.99433395  0.04488031     0.19100
H1804       H  0.52054480  0.00921804  0.08253556     0.17900
H1805       H  0.43630943  0.00587394  0.07890466     0.14200
H1806       H  0.61018507  0.99506516  0.04871793     0.14000
H1807       H  0.44540683  0.99368447  0.04688312     0.32200
H1808       H  0.60112950  0.00791748  0.08067107     0.35000
C1809       C  0.06008009  0.98676950  0.06084728     0.20600
C1810       C  0.02743965  0.98598172  0.05437601    -0.39300
C1811       C  0.99061664  0.98603592  0.05917588     0.19500
C1812       C  0.98625420  0.98682971  0.06962635     0.22200
C1813       C  0.01898388  0.98749412  0.07612306    -0.39800
C1814       C  0.05592195  0.98744412  0.07130741     0.21000
N1815       N  0.09830247  0.98712277  0.05815603    -0.33100
C1816       C  0.11864864  0.98797137  0.06699026    -0.10700
C1817       C  0.09319649  0.98819245  0.07533556    -0.29500
N1818       N  0.94788074  0.98802774  0.07220110    -0.46100
C1819       C  0.92794399  0.98809580  0.06327435    -0.05300
C1820       C  0.95366880  0.98668222  0.05503914    -0.22700
H1821       H  0.03044361  0.98571590  0.04619192     0.19100
H1822       H  0.01596150  0.98833489  0.08429756     0.17900
H1823       H  0.10098840  0.98864793  0.08330456     0.14200
H1824       H  0.94636303  0.98716694  0.04703738     0.14000
H1825       H  0.10978072  0.98655347  0.05079952     0.32200
H1826       H  0.93617099  0.98962666  0.07950172     0.35000
C1827       C  0.19609674  0.84649626  0.07135711     0.20600
C1828       C  0.20600002  0.86476627  0.07750399    -0.39300
C1829       C  0.21768075  0.88429250  0.07238913     0.19500
C1830       C  0.21956825  0.88574393  0.06190610     0.22200
C1831       C  0.21004315  0.86717850  0.05569439    -0.39800
C1832       C  0.19807076  0.84744703  0.06086153     0.21000
N1833       N  0.18359782  0.82627529  0.07452930    -0.33100
C1834       C  0.17753003  0.81390542  0.06605860    -0.10700
C1835       C  0.18622378  0.82650444  0.05732022    -0.29500
N1836       N  0.22832500  0.90703919  0.05900373    -0.46100
C1837       C  0.23162070  0.91898541  0.06775735    -0.05300
C1838       C  0.22563392  0.90522177  0.07621100    -0.22700
H1839       H  0.20377747  0.86400421  0.08570153     0.19100
H1840       H  0.21095538  0.86818240  0.04748857     0.17900
H1841       H  0.18507039  0.82093185  0.04950575     0.14200
H1842       H  0.22453419  0.91021695  0.08411019     0.14000
H1843       H  0.18018669  0.82106562  0.08206882     0.32200
H1844       H  0.22963315  0.91329829  0.05158473     0.35000
C1845       C  0.92002340  0.88993379  0.19097851     0.20600
C1846       C  0.93637872  0.87139360  0.19625079    -0.39300
C1847       C  0.94048449  0.85129455  0.19062921     0.19500
C1848       C  0.92928817  0.84997081  0.18054406     0.22200
C1849       C  0.91284064  0.86831681  0.17531997    -0.39800
C1850       C  0.90872342  0.88823066  0.18091199     0.21000
N1851       N  0.91573365  0.91137776  0.19427891    -0.33100
C1852       C  0.90207147  0.92329750  0.18617781    -0.10700
C1853       C  0.89701482  0.90929777  0.17777629    -0.29500
N1854       N  0.93665735  0.82938135  0.17679252    -0.46100
C1855       C  0.95242491  0.81716159  0.18450937    -0.05300
C1856       C  0.95530047  0.83026163  0.19331027    -0.22700
H1857       H  0.94586784  0.87263683  0.20407472     0.19100
H1858       H  0.90464758  0.86730261  0.16738846     0.17900
H1859       H  0.88837637  0.91421764  0.17016734     0.14200
H1860       H  0.96638667  0.82506903  0.20066176     0.14000
H1861       H  0.92408198  0.91777161  0.20134002     0.32200
H1862       H  0.93060186  0.82385282  0.16942810     0.35000
C1863       C  0.81529404  0.98310481  0.13600122     0.20600
C1864       C  0.82008555  0.97053956  0.12712748    -0.39300
C1865       C  0.81414787  0.98233685  0.11807733     0.19500
C1866       C  0.80440849  0.00503582  0.11783411     0.22200
C1867       C  0.79908824  0.01763508  0.12677439    -0.39800
C1868       C  0.80494376  0.00572758  0.13590744     0.21000
N1869       N  0.82274115  0.97604158  0.14544716    -0.33100
C1870       C  0.81756223  0.99419753  0.15150395    -0.10700
C1871       C  0.80564349  0.01305566  0.14588365    -0.29500
N1872       N  0.79952044  0.01202674  0.10819201    -0.46100
C1873       C  0.80565260  0.99349283  0.10238118    -0.05300
C1874       C  0.81480844  0.97470176  0.10825835    -0.22700
H1875       H  0.82830167  0.95287620  0.12726728     0.19100
H1876       H  0.79151214  0.03538711  0.12662435     0.17900
H1877       H  0.80166094  0.03014771  0.14858158     0.14200
H1878       H  0.81935485  0.95753709  0.10570926     0.14000
H1879       H  0.83328400  0.96013053  0.14756884     0.32200
H1880       H  0.79013110  0.02794638  0.10575150     0.35000
C1881       C  0.64271100  0.99797528  0.19539257     0.20600
C1882       C  0.60697107  0.99991199  0.20067962    -0.39300
C1883       C  0.57287434  0.99863156  0.19472450     0.19500
C1884       C  0.57450556  0.99570750  0.18430826     0.22200
C1885       C  0.61022842  0.99381113  0.17901776    -0.39800
C1886       C  0.64430455  0.99509328  0.18497242     0.21000
N1887       N  0.67908141  0.99882858  0.19930958    -0.33100
C1888       C  0.70410591  0.99657813  0.19134618    -0.10700
C1889       C  0.68352386  0.99421602  0.18224657    -0.29500
N1890       N  0.53816965  0.99471032  0.18039588    -0.46100
C1891       C  0.51306713  0.99691020  0.18835069    -0.05300
C1892       C  0.53360591  0.99944345  0.19744662    -0.22700
H1893       H  0.60583286  0.00219379  0.20882769     0.19100
H1894       H  0.61136630  0.99149946  0.17087087     0.17900
H1895       H  0.69557663  0.99243043  0.17468016     0.14200
H1896       H  0.52151366  0.00125200  0.20500675     0.14000
H1897       H  0.68641425  0.00124605  0.20693482     0.32200
H1898       H  0.53092578  0.99224444  0.17276717     0.35000
C1899       C  0.14230002  0.99639864  0.19454490     0.20600
C1900       C  0.10643450  0.99648323  0.19982106    -0.39300
C1901       C  0.07260392  0.99563335  0.19377176     0.19500
C1902       C  0.07449404  0.99463372  0.18327956     0.22200
C1903       C  0.11039486  0.99444903  0.17800107    -0.39800
C1904       C  0.14426751  0.99542886  0.18405292     0.21000
N1905       N  0.17843901  0.99779967  0.19854920    -0.33100
C1906       C  0.20372918  0.99779462  0.19057865    -0.10700
C1907       C  0.18354921  0.99625219  0.18138092    -0.29500
N1908       N  0.03823431  0.99409993  0.17927937    -0.46100
C1909       C  0.01306368  0.99481712  0.18726937    -0.05300
C1910       C  0.03338064  0.99575701  0.19645490    -0.22700
H1911       H  0.10500212  0.99739700  0.20802294     0.19100
H1912       H  0.11180806  0.99383482  0.16979334     0.17900
H1913       H  0.19585032  0.99621859  0.17379636     0.14200
H1914       H  0.02114368  0.99625479  0.20404308     0.14000
H1915       H  0.18540412  0.99906245  0.20625586     0.32200
H1916       H  0.03107839  0.99318701  0.17157435     0.35000
C1917       C  0.41539964  0.89105035  0.18120971     0.20600
C1918       C  0.42080815  0.87234112  0.17492007    -0.39300
C1919       C  0.43608572  0.85309154  0.17963555     0.19500
C1920       C  0.44521491  0.85228801  0.18987164     0.22200
C1921       C  0.43957107  0.87113395  0.19622464    -0.39800
C1922       C  0.42425978  0.89061548  0.19147176     0.21000
N1923       N  0.40396201  0.91168804  0.17829491    -0.33100
C1924       C  0.40550705  0.92480294  0.18669075    -0.10700
C1925       C  0.41765177  0.91222451  0.19514091    -0.29500
N1926       N  0.45915491  0.83168567  0.19242203    -0.46100
C1927       C  0.45878096  0.81950005  0.18369677    -0.05300
C1928       C  0.44460327  0.83237739  0.17560361    -0.22700
H1929       H  0.41420242  0.87286418  0.16687810     0.19100
H1930       H  0.44708696  0.87077096  0.20421070     0.17900
H1931       H  0.42358644  0.91838905  0.20271546     0.14200
H1932       H  0.43998820  0.82705710  0.16783458     0.14000
H1933       H  0.39735033  0.91681641  0.17088495     0.32200
H1934       H  0.46739911  0.82611487  0.19965030     0.35000
C1935       C  0.32132648  0.00549753  0.11735010     0.20600
C1936       C  0.32037511  0.01905597  0.12611669    -0.39300
C1937       C  0.32136984  0.00735453  0.13543816     0.19500
C1938       C  0.32383878  0.98403835  0.13589331     0.22200
C1939       C  0.32469007  0.97057755  0.12720004    -0.39800
C1940       C  0.32301944  0.98217215  0.11796065     0.21000
N1941       N  0.31689096  0.01214488  0.10762136    -0.33100
C1942       C  0.31478428  0.99282029  0.10213626    -0.10700
C1943       C  0.31891836  0.97387246  0.10831404    -0.29500
N1944       N  0.32623194  0.97688765  0.14552078    -0.46100
C1945       C  0.32514645  0.99565210  0.15134262    -0.05300
C1946       C  0.32172465  0.01508932  0.14535527    -0.22700
H1947       H  0.31830165  0.03727382  0.12571188     0.19100
H1948       H  0.32576283  0.95232694  0.12761051     0.17900
H1949       H  0.31613690  0.95633794  0.10612845     0.14200
H1950       H  0.32234057  0.03246922  0.14786381     0.14000
H1951       H  0.31208100  0.02858566  0.10500062     0.32200
H1952       H  0.33013425  0.96024159  0.14798091     0.35000
C1953       C  0.82299860  0.10005133  0.05684613     0.20600
C1954       C  0.82103597  0.11919002  0.05070588    -0.39300
C1955       C  0.81459717  0.13938697  0.05579047     0.19500
C1956       C  0.81114504  0.14074849  0.06625008     0.22200
C1957       C  0.81255870  0.12136162  0.07245062    -0.39800
C1958       C  0.81832025  0.10085157  0.06729289     0.21000
N1959       N  0.82712673  0.07885641  0.05364687    -0.33100
C1960       C  0.82421377  0.06575096  0.06202769    -0.10700
C1961       C  0.81892645  0.07878216  0.07075743    -0.29500
N1962       N  0.80686366  0.16241196  0.06912973    -0.46100
C1963       C  0.80717529  0.17449936  0.06035307    -0.05300
C1964       C  0.81160039  0.16068521  0.05192965    -0.22700
H1965       H  0.82396074  0.11837229  0.04252584     0.19100
H1966       H  0.80909645  0.12215556  0.08061338     0.17900
H1967       H  0.81465829  0.07289826  0.07847129     0.14200
H1968       H  0.81391082  0.16569039  0.04403280     0.14000
H1969       H  0.82982018  0.07358463  0.04611125     0.32200
H1970       H  0.80444709  0.16857566  0.07652767     0.35000
C1971       C  0.31380527  0.14160652  0.06558355     0.20600
C1972       C  0.32009806  0.12205354  0.07145804    -0.39300
C1973       C  0.31097485  0.10151334  0.06667568     0.19500
C1974       C  0.29689380  0.10067340  0.05680693     0.22200
C1975       C  0.29030278  0.12008566  0.05100577    -0.39800
C1976       C  0.29938347  0.14045106  0.05576411     0.21000
N1977       N  0.32054726  0.16323594  0.06822279    -0.33100
C1978       C  0.31011385  0.17571033  0.05998525    -0.10700
C1979       C  0.29697296  0.16203141  0.05209598    -0.29500
N1980       N  0.29328093  0.07931473  0.05367974    -0.46100
C1981       C  0.30509064  0.06634272  0.06158021    -0.05300
C1982       C  0.31583511  0.07946963  0.06990947    -0.22700
H1983       H  0.33188125  0.12274453  0.07908734     0.19100
H1984       H  0.27966905  0.11935684  0.04326211     0.17900
H1985       H  0.28680507  0.16722492  0.04465166     0.14200
H1986       H  0.32776885  0.07370759  0.07708659     0.14000
H1987       H  0.33134524  0.16911260  0.07515393     0.32200
H1988       H  0.28445600  0.07387648  0.04648826     0.35000
C1989       C  0.56832755  0.25312812  0.06707952     0.20600
C1990       C  0.60397298  0.25344119  0.07246346    -0.39300
C1991       C  0.63817059  0.25249458  0.06653919     0.19500
C1992       C  0.63683482  0.25129985  0.05605000     0.22200
C1993       C  0.60112518  0.25086120  0.05065572    -0.39800
C1994       C  0.56685430  0.25182024  0.05659307     0.21000
N1995       N  0.53195216  0.25421337  0.07098350    -0.33100
C1996       C  0.50690216  0.25361904  0.06296887    -0.10700
C1997       C  0.52755958  0.25198993  0.05382720    -0.29500
N1998       N  0.67334494  0.25004181  0.05220514    -0.46100
C1999       C  0.69814354  0.25030024  0.06029174    -0.05300
C2000       C  0.67727511  0.25191696  0.06938042    -0.22700
H2001       H  0.60497034  0.25432042  0.08066987     0.19100
H2002       H  0.60013175  0.24980936  0.04245381     0.17900
H2003       H  0.51554002  0.25138974  0.04622004     0.14200
H2004       H  0.68902784  0.25198282  0.07702130     0.14000
H2005       H  0.52463776  0.25543787  0.07867022     0.32200
H2006       H  0.68085970  0.24849124  0.04454314     0.35000
C2007       C  0.13632571  0.24439673  0.05805156     0.20600
C2008       C  0.10067093  0.24279966  0.05274781    -0.39300
C2009       C  0.06684868  0.24121643  0.05876389     0.19500
C2010       C  0.06850965  0.24126654  0.06926668     0.22200
C2011       C  0.10427386  0.24284696  0.07458690    -0.39800
C2012       C  0.13821444  0.24436998  0.06855218     0.21000
N2013       N  0.17242887  0.24562398  0.05403021    -0.33100
C2014       C  0.19778228  0.24620165  0.06197720    -0.10700
C2015       C  0.17756098  0.24556173  0.07120776    -0.29500
N2016       N  0.03211254  0.24069505  0.07320818    -0.46100
C2017       C  0.00711362  0.24046166  0.06516490    -0.05300
C2018       C  0.02772237  0.24056111  0.05601268    -0.22700
H2019       H  0.09937987  0.24292426  0.04453270     0.19100
H2020       H  0.10552863  0.24299051  0.08280109     0.17900
H2021       H  0.18993893  0.24533855  0.07878198     0.14200
H2022       H  0.01570983  0.24126780  0.04840346     0.14000
H2023       H  0.17940594  0.24542470  0.04630113     0.32200
H2024       H  0.02473091  0.24142581  0.08090415     0.35000
C2025       C  0.80575770  0.10319907  0.19608653     0.20600
C2026       C  0.79964924  0.12277770  0.20171096    -0.39300
C2027       C  0.80279727  0.14290425  0.19627932     0.19500
C2028       C  0.81092203  0.14368030  0.18597226     0.22200
C2029       C  0.81727310  0.12392207  0.18031059    -0.39800
C2030       C  0.81448127  0.10359783  0.18580812     0.21000
N2031       N  0.80497428  0.08207387  0.19963532    -0.33100
C2032       C  0.81333920  0.06872311  0.19161023    -0.10700
C2033       C  0.81960639  0.08145796  0.18281289    -0.29500
N2034       N  0.81338086  0.16523114  0.18274941    -0.46100
C2035       C  0.80744706  0.17790493  0.19117222    -0.05300
C2036       C  0.80060136  0.16459332  0.19969449    -0.22700
H2037       H  0.79353697  0.12237454  0.20978111     0.19100
H2038       H  0.82437352  0.12434886  0.17229817     0.17900
H2039       H  0.82687567  0.07536595  0.17530170     0.14200
H2040       H  0.79555881  0.17010846  0.20741969     0.14000
H2041       H  0.79928546  0.07707393  0.20711363     0.32200
H2042       H  0.82015056  0.17092458  0.17543690     0.35000
C2043       C  0.80962775  0.23706211  0.13450098     0.20600
C2044       C  0.80489072  0.22440816  0.12552891    -0.39300
C2045       C  0.80993890  0.23646807  0.11637495     0.19500
C2046       C  0.81935357  0.25921366  0.11628266     0.22200
C2047       C  0.82381518  0.27176254  0.12516636    -0.39800
C2048       C  0.81842027  0.25987695  0.13422365     0.21000
N2049       N  0.80356934  0.23026991  0.14415915    -0.33100
C2050       C  0.80792947  0.24907813  0.14992842    -0.10700
C2051       C  0.81734300  0.26774983  0.14399373    -0.29500
N2052       N  0.82426151  0.26675594  0.10678503    -0.46100
C2053       C  0.81789048  0.24885207  0.10066149    -0.05300
C2054       C  0.80850094  0.22956836  0.10632906    -0.22700
H2055       H  0.79742063  0.20664564  0.12566324     0.19100
H2056       H  0.83050304  0.28963196  0.12502712     0.17900
H2057       H  0.82025653  0.28510137  0.14644266     0.14200
H2058       H  0.80376578  0.21262274  0.10353197     0.14000
H2059       H  0.79401600  0.21437466  0.14658280     0.32200
H2060       H  0.83289116  0.28299838  0.10460525     0.35000
C2061       C  0.32987095  0.10489937  0.19619810     0.20600
C2062       C  0.33672131  0.12440708  0.20186406    -0.39300
C2063       C  0.33249273  0.14473276  0.19658411     0.19500
C2064       C  0.32193678  0.14569168  0.18643397     0.22200
C2065       C  0.31553115  0.12604240  0.18069976    -0.39800
C2066       C  0.32013846  0.10554920  0.18598539     0.21000
N2067       N  0.33045842  0.08365072  0.19965005    -0.33100
C2068       C  0.32145097  0.07048846  0.19160219    -0.10700
C2069       C  0.31510219  0.08345169  0.18287585    -0.29500
N2070       N  0.31758199  0.16727229  0.18340862    -0.46100
C2071       C  0.32555779  0.17993119  0.19172525    -0.05300
C2072       C  0.33523788  0.16645564  0.20004200    -0.22700
H2073       H  0.34401797  0.12380535  0.20986486     0.19100
H2074       H  0.30692406  0.12667140  0.17278948     0.17900
H2075       H  0.30679455  0.07757505  0.17540317     0.14200
H2076       H  0.34188032  0.17182542  0.20770515     0.14000
H2077       H  0.33649629  0.07839919  0.20707437     0.32200
H2078       H  0.30875011  0.17299023  0.17624829     0.35000
C2079       C  0.48666842  0.25871494  0.19367295     0.20600
C2080       C  0.52234250  0.25969450  0.19905363    -0.39300
C2081       C  0.55658969  0.25735575  0.19320386     0.19500
C2082       C  0.55522217  0.25434941  0.18279043     0.22200
C2083       C  0.51954753  0.25317883  0.17742095    -0.39800
C2084       C  0.48529140  0.25550774  0.18327355     0.21000
N2085       N  0.45017732  0.25973037  0.19754092    -0.33100
C2086       C  0.42520875  0.25698315  0.18959128    -0.10700
C2087       C  0.44605870  0.25442683  0.18052716    -0.29500
N2088       N  0.59171079  0.25329071  0.17892928    -0.46100
C2089       C  0.61660383  0.25561060  0.18691494    -0.05300
C2090       C  0.59580256  0.25799952  0.19598750    -0.22700
H2091       H  0.52332667  0.26207426  0.20719716     0.19100
H2092       H  0.51856747  0.25063418  0.16928771     0.17900
H2093       H  0.43420897  0.25117886  0.17304279     0.14200
H2094       H  0.60770517  0.26059182  0.20351908     0.14000
H2095       H  0.44276493  0.26133229  0.20520667     0.32200
H2096       H  0.59922423  0.25143421  0.17128161     0.35000
C2097       C  0.98659308  0.24587214  0.19317098     0.20600
C2098       C  0.02207510  0.24384391  0.19852551    -0.39300
C2099       C  0.05609479  0.24286230  0.19256544     0.19500
C2100       C  0.05471741  0.24384335  0.18206850     0.22200
C2101       C  0.01914588  0.24587143  0.17669303    -0.39800
C2102       C  0.98503909  0.24679806  0.18267201     0.21000
N2103       N  0.95036922  0.24668532  0.19713062    -0.33100
C2104       C  0.92532828  0.24792703  0.18913602    -0.10700
C2105       C  0.94581320  0.24816823  0.17994693    -0.29500
N2106       N  0.09119159  0.24358437  0.17819884    -0.46100
C2107       C  0.11600660  0.24261441  0.18627574    -0.05300
C2108       C  0.09517021  0.24197163  0.19538656    -0.22700
H2109       H  0.02309090  0.24320603  0.20673880     0.19100
H2110       H  0.01815201  0.24674756  0.16848352     0.17900
H2111       H  0.93367735  0.24864312  0.17234802     0.14200
H2112       H  0.10697967  0.24198606  0.20302151     0.14000
H2113       H  0.94311819  0.24579348  0.20483430     0.32200
H2114       H  0.09873432  0.24498818  0.17052777     0.35000
C2115       C  0.31145534  0.23846975  0.13486752     0.20600
C2116       C  0.31309709  0.22500384  0.12605840    -0.39300
C2117       C  0.31384102  0.23683929  0.11674257     0.19500
C2118       C  0.31342021  0.26020281  0.11634692     0.22200
C2119       C  0.31124209  0.27353148  0.12507471    -0.39800
C2120       C  0.31010960  0.26179479  0.13428820     0.21000
N2121       N  0.30908028  0.23162152  0.14463589    -0.33100
C2122       C  0.30564019  0.25082469  0.15018344    -0.10700
C2123       C  0.30611414  0.26987059  0.14397991    -0.29500
N2124       N  0.31691407  0.26759197  0.10676481    -0.46100
C2125       C  0.31925784  0.24895223  0.10087806    -0.05300
C2126       C  0.31711742  0.22932402  0.10680445    -0.22700
H2127       H  0.31383854  0.20674952  0.12642720     0.19100
H2128       H  0.31053967  0.29179202  0.12471412     0.17900
H2129       H  0.30221377  0.28728713  0.14624292     0.14200
H2130       H  0.32032046  0.21205492  0.10427218     0.14000
H2131       H  0.30745231  0.21501173  0.14730054     0.32200
H2132       H  0.31915040  0.28439804  0.10439236     0.35000
C2133       C  0.58524786  0.59875637  0.05588151     0.20600
C2134       C  0.59354662  0.61789499  0.05006353    -0.39300
C2135       C  0.58910242  0.63847546  0.05502284     0.19500
C2136       C  0.57804575  0.64007286  0.06511938     0.22200
C2137       C  0.56976241  0.62073600  0.07100748    -0.39800
C2138       C  0.57351668  0.59993985  0.06594146     0.21000
N2139       N  0.58421344  0.57751851  0.05252965    -0.33100
C2140       C  0.57126608  0.56482097  0.06040116    -0.10700
C2141       C  0.56456958  0.57812033  0.06899381    -0.29500
N2142       N  0.57379692  0.66189236  0.06777759    -0.46100
C2143       C  0.58140637  0.67391863  0.05920176    -0.05300
C2144       C  0.59128608  0.65990131  0.05115357    -0.22700
H2145       H  0.60125789  0.61685619  0.04209915     0.19100
H2146       H  0.55968164  0.62184221  0.07878873     0.17900
H2147       H  0.55324569  0.57272574  0.07629318     0.14200
H2148       H  0.59800905  0.66475323  0.04340840     0.14000
H2149       H  0.59055125  0.57212626  0.04515925     0.32200
H2150       H  0.56456998  0.66814502  0.07479520     0.35000
C2151       C  0.40608386  0.35630848  0.05840836     0.20600
C2152       C  0.42352482  0.37424856  0.05294428    -0.39300
C2153       C  0.42928316  0.39443126  0.05840923     0.19500
C2154       C  0.41857299  0.39634781  0.06851044     0.22200
C2155       C  0.40090876  0.37866900  0.07389411    -0.39800
C2156       C  0.39508746  0.35871770  0.06846857     0.21000
N2157       N  0.40153518  0.33465535  0.05543837    -0.33100
C2158       C  0.38823230  0.32334979  0.06376325    -0.10700
C2159       C  0.38310847  0.33798513  0.07192033    -0.29500
N2160       N  0.42758571  0.41680765  0.07212458    -0.46100
C2161       C  0.44385627  0.42842045  0.06430085    -0.05300
C2162       C  0.44554757  0.41500285  0.05556964    -0.22700
H2163       H  0.43288611  0.37243969  0.04513156     0.19100
H2164       H  0.39334364  0.38012242  0.08185371     0.17900
H2165       H  0.37531511  0.33359678  0.07965422     0.14200
H2166       H  0.45649179  0.41976181  0.04814501     0.14000
H2167       H  0.41026950  0.32767434  0.04851946     0.32200
H2168       H  0.42213326  0.42267593  0.07946746     0.35000
C2169       C  0.04604243  0.60200797  0.05517390     0.20600
C2170       C  0.04552886  0.62152297  0.04925765    -0.39300
C2171       C  0.05244810  0.64153536  0.05443753     0.19500
C2172       C  0.05954623  0.64234912  0.06477908     0.22200
C2173       C  0.06012401  0.62255956  0.07078860    -0.39800
C2174       C  0.05295272  0.60223399  0.06554151     0.21000
N2175       N  0.04197569  0.58098489  0.05176121    -0.33100
C2176       C  0.04643964  0.56732890  0.05991082    -0.10700
C2177       C  0.05290939  0.57987312  0.06875156    -0.29500
N2178       N  0.06561206  0.66388304  0.06770878    -0.46100
C2179       C  0.06208005  0.67647623  0.05909624    -0.05300
C2180       C  0.05402951  0.66304677  0.05072706    -0.22700
H2181       H  0.04052602  0.62110786  0.04113886     0.19100
H2182       H  0.06607662  0.62292946  0.07886134     0.17900
H2183       H  0.05870961  0.57351036  0.07632069     0.14200
H2184       H  0.04998911  0.66833858  0.04291579     0.14000
H2185       H  0.03754560  0.57617955  0.04421710     0.32200
H2186       H  0.07175033  0.66961708  0.07503348     0.35000
C2187       C  0.79649075  0.48635638  0.05861098     0.20600
C2188       C  0.76346261  0.48387875  0.05235922    -0.39300
C2189       C  0.72690826  0.48481487  0.05728097     0.19500
C2190       C  0.72308352  0.48818287  0.06763327     0.22200
C2191       C  0.75624331  0.49060793  0.07391992    -0.39800
C2192       C  0.79298123  0.48942199  0.06899567     0.21000
N2193       N  0.83455185  0.48587884  0.05576880    -0.33100
C2194       C  0.85554808  0.48842868  0.06443233    -0.10700
C2195       C  0.83061859  0.49068006  0.07282713    -0.29500
N2196       N  0.68474429  0.48944762  0.07029842    -0.46100
C2197       C  0.66427622  0.48682930  0.06152671    -0.05300
C2198       C  0.68971417  0.48380672  0.05331182    -0.22700
H2199       H  0.76599696  0.48150550  0.04423665     0.19100
H2200       H  0.75368314  0.49327803  0.08202177     0.17900
H2201       H  0.83898246  0.49270177  0.08070462     0.14200
H2202       H  0.68200136  0.48217927  0.04536910     0.14000
H2203       H  0.84553322  0.48342954  0.04844247     0.32200
H2204       H  0.67335614  0.49286806  0.07750247     0.35000
C2205       C  0.22536134  0.50229496  0.05387372     0.20600
C2206       C  0.26093779  0.50324063  0.04839168    -0.39300
C2207       C  0.29512469  0.50642368  0.05423044     0.19500
C2208       C  0.29347948  0.50884114  0.06467414     0.22200
C2209       C  0.25806170  0.50787507  0.07011973    -0.39800
C2210       C  0.22415433  0.50432987  0.06433220     0.21000
N2211       N  0.18890118  0.49931201  0.05016801    -0.33100
C2212       C  0.16441052  0.49936760  0.05833318    -0.10700
C2213       C  0.18541053  0.50231675  0.06731576    -0.29500
N2214       N  0.32971504  0.50981849  0.06861451    -0.46100
C2215       C  0.35505862  0.50746521  0.06073228    -0.05300
C2216       C  0.33460219  0.50570789  0.05155206    -0.22700
H2217       H  0.26198976  0.50105831  0.04023745     0.19100
H2218       H  0.25713722  0.50918540  0.07831507     0.17900
H2219       H  0.17378609  0.50359832  0.07494805     0.14200
H2220       H  0.34676028  0.50247861  0.04409757     0.14000
H2221       H  0.18108292  0.49779970  0.04252615     0.32200
H2222       H  0.33668032  0.51043758  0.07633807     0.35000
C2223       C  0.95203830  0.38683295  0.05790912     0.20600
C2224       C  0.93223750  0.36921676  0.05283414    -0.39300
C2225       C  0.92747410  0.34905004  0.05843187     0.19500
C2226       C  0.94121853  0.34695769  0.06828605     0.22200
C2227       C  0.96130232  0.36422779  0.07324264    -0.39800
C2228       C  0.96615104  0.38410205  0.06769941     0.21000
N2229       N  0.95625066  0.40850201  0.05489384    -0.33100
C2230       C  0.97251431  0.41939287  0.06293823    -0.10700
C2231       C  0.97974841  0.40456137  0.07093262    -0.29500
N2232       N  0.93245457  0.32672789  0.07216770    -0.46100
C2233       C  0.91346249  0.31533791  0.06475903    -0.05300
C2234       C  0.90962325  0.32868474  0.05600858    -0.22700
H2235       H  0.92044167  0.37127584  0.04525172     0.19100
H2236       H  0.97125174  0.36256524  0.08102184     0.17900
H2237       H  0.98992364  0.40868923  0.07849614     0.14200
H2238       H  0.89627480  0.32402586  0.04885341     0.14000
H2239       H  0.94540602  0.41579337  0.04822168     0.32200
H2240       H  0.94003955  0.32080561  0.07939265     0.35000
C2241       C  0.54050355  0.59950415  0.19245812     0.20600
C2242       C  0.53426033  0.61873676  0.19831459    -0.39300
C2243       C  0.53930133  0.63923355  0.19328440     0.19500
C2244       C  0.54923207  0.64071407  0.18310415     0.22200
C2245       C  0.55560007  0.62126073  0.17718110    -0.39800
C2246       C  0.55104732  0.60048871  0.18230551     0.21000
N2247       N  0.54013959  0.57824114  0.19582465    -0.33100
C2248       C  0.55091695  0.56523398  0.18787523    -0.10700
C2249       C  0.55777545  0.57844251  0.17921261    -0.29500
N2250       N  0.55396020  0.66249318  0.18035469    -0.46100
C2251       C  0.54766310  0.67456445  0.18895356    -0.05300
C2252       C  0.53825125  0.66063650  0.19710870    -0.22700
H2253       H  0.52731876  0.61778831  0.20633161     0.19100
H2254       H  0.56461609  0.62223224  0.16930716     0.17900
H2255       H  0.56785931  0.57282292  0.17184393     0.14200
H2256       H  0.53235180  0.66552692  0.20487953     0.14000
H2257       H  0.53439322  0.57300226  0.20326591     0.32200
H2258       H  0.56238536  0.66867568  0.17323994     0.35000
C2259       C  0.72059457  0.35815925  0.19105516     0.20600
C2260       C  0.70381188  0.37619351  0.19651879    -0.39300
C2261       C  0.69978643  0.39667333  0.19115179     0.19500
C2262       C  0.71204230  0.39887857  0.18117266     0.22200
C2263       C  0.72912388  0.38107802  0.17577844    -0.39800
C2264       C  0.73259391  0.36067377  0.18106445     0.21000
N2265       N  0.72300023  0.33632208  0.19391960    -0.33100
C2266       C  0.73577083  0.32495458  0.18560463    -0.10700
C2267       C  0.74257898  0.33967335  0.17751297    -0.29500
N2268       N  0.70272187  0.41926476  0.17748488    -0.46100
C2269       C  0.68413167  0.43036229  0.18508615    -0.05300
C2270       C  0.68205001  0.41691155  0.19382345    -0.22700
H2271       H  0.69295362  0.37412342  0.20419415     0.19100
H2272       H  0.73719556  0.38267970  0.16785296     0.17900
H2273       H  0.75062909  0.33532426  0.16980581     0.14200
H2274       H  0.66865511  0.42114647  0.20102869     0.14000
H2275       H  0.71340077  0.32935711  0.20078536     0.32200
H2276       H  0.70829620  0.42516502  0.17013447     0.35000
C2277       C  0.58414241  0.49308920  0.13242291     0.20600
C2278       C  0.59924519  0.49366247  0.12250121    -0.39300
C2279       C  0.57122650  0.49545622  0.11472957     0.19500
C2280       C  0.53121807  0.49624411  0.11672590     0.22200
C2281       C  0.51616052  0.49621379  0.12666179    -0.39800
C2282       C  0.54423604  0.49475706  0.13444069     0.21000
N2283       N  0.60462579  0.49096563  0.14107732    -0.33100
C2284       C  0.57775202  0.49175881  0.14867537    -0.10700
C2285       C  0.53968458  0.49421019  0.14486463    -0.29500
N2286       N  0.51060633  0.49620808  0.10803731    -0.46100
C2287       C  0.53762237  0.49568923  0.10046144    -0.05300
C2288       C  0.57583695  0.49549886  0.10430989    -0.22700
H2289       H  0.63047105  0.49245302  0.12094750     0.19100
H2290       H  0.48488475  0.49693497  0.12821009     0.17900
H2291       H  0.51248290  0.49519194  0.14912574     0.14200
H2292       H  0.60309477  0.49443162  0.10007690     0.14000
H2293       H  0.63515523  0.48948426  0.14179551     0.32200
H2294       H  0.47998040  0.49622158  0.10729026     0.35000
C2295       C  0.08579587  0.64548002  0.19397102     0.20600
C2296       C  0.09231708  0.62578458  0.19953653    -0.39300
C2297       C  0.09042307  0.60581959  0.19400230     0.19500
C2298       C  0.08287648  0.60527403  0.18366449     0.22200
C2299       C  0.07613622  0.62514068  0.17806210    -0.39800
C2300       C  0.07779102  0.64529224  0.18365208     0.21000
N2301       N  0.08399213  0.66641597  0.19767804    -0.33100
C2302       C  0.07439147  0.67979337  0.18972043    -0.10700
C2303       C  0.07043393  0.66732687  0.18079516    -0.29500
N2304       N  0.08006710  0.58379898  0.18041320    -0.46100
C2305       C  0.08517305  0.57094142  0.18884845    -0.05300
C2306       C  0.09206425  0.58407076  0.19739391    -0.22700
H2307       H  0.09723558  0.62594959  0.20766113     0.19100
H2308       H  0.06897720  0.62488655  0.17005336     0.17900
H2309       H  0.06226106  0.67345941  0.17333362     0.14200
H2310       H  0.09578724  0.57842195  0.20516726     0.14000
H2311       H  0.08788680  0.67119812  0.20524419     0.32200
H2312       H  0.07284391  0.57830684  0.17311738     0.35000
C2313       C  0.89653533  0.50676831  0.19214444     0.20600
C2314       C  0.86086165  0.50674422  0.19756398    -0.39300
C2315       C  0.82653890  0.50806573  0.19166394     0.19500
C2316       C  0.82787491  0.50928262  0.18117358     0.22200
C2317       C  0.86355286  0.50926959  0.17575500    -0.39800
C2318       C  0.89787556  0.50796162  0.18165411     0.21000
N2319       N  0.93302232  0.50540126  0.19599501    -0.33100
C2320       C  0.95797609  0.50563660  0.18793496    -0.10700
C2321       C  0.93711064  0.50728200  0.17882536    -0.29500
N2322       N  0.79135820  0.50929926  0.17729303    -0.46100
C2323       C  0.76637839  0.50799888  0.18532779    -0.05300
C2324       C  0.78728095  0.50730700  0.19445743    -0.22700
H2325       H  0.85992039  0.50548734  0.20576419     0.19100
H2326       H  0.86446648  0.50992347  0.16754151     0.17900
H2327       H  0.94898396  0.50799025  0.17120158     0.14200
H2328       H  0.77548154  0.50532863  0.20204578     0.14000
H2329       H  0.94047828  0.50438361  0.20368155     0.32200
H2330       H  0.78395155  0.50925280  0.16959150     0.35000
C2331       C  0.32482159  0.48585351  0.19131237     0.20600
C2332       C  0.35727838  0.48666845  0.19788151    -0.39300
C2333       C  0.39437786  0.48501029  0.19323057     0.19500
C2334       C  0.39903030  0.48279944  0.18283304     0.22200
C2335       C  0.36653296  0.48182804  0.17626881    -0.39800
C2336       C  0.32941770  0.48342982  0.18092320     0.21000
N2337       N  0.28646748  0.48765195  0.19379449    -0.33100
C2338       C  0.26653755  0.48632060  0.18489836    -0.10700
C2339       C  0.29237271  0.48362063  0.17672990    -0.29500
N2340       N  0.43746761  0.48311658  0.18027078    -0.46100
C2341       C  0.45737360  0.48557231  0.18912598    -0.05300
C2342       C  0.43140159  0.48662441  0.19735058    -0.22700
H2343       H  0.35395169  0.48888993  0.20599371     0.19100
H2344       H  0.36988135  0.48038750  0.16812084     0.17900
H2345       H  0.28500025  0.48211570  0.16876207     0.14200
H2346       H  0.43858861  0.48944620  0.20525558     0.14000
H2347       H  0.27463913  0.48966270  0.20106034     0.32200
H2348       H  0.44927114  0.48267233  0.17294744     0.35000
C2349       C  0.16107343  0.38887246  0.19087317     0.20600
C2350       C  0.17832878  0.37120825  0.19654273    -0.39300
C2351       C  0.18622537  0.35122433  0.19112804     0.19500
C2352       C  0.17748886  0.34925359  0.18090331     0.22200
C2353       C  0.15981659  0.36657765  0.17533066    -0.39800
C2354       C  0.15202520  0.38633904  0.18068806     0.21000
N2355       N  0.15576147  0.41051582  0.19372612    -0.33100
C2356       C  0.14401453  0.42163706  0.18520674    -0.10700
C2357       C  0.14050967  0.40693537  0.17703365    -0.29500
N2358       N  0.18891552  0.32922616  0.17731859    -0.46100
C2359       C  0.20482746  0.31793153  0.18527081    -0.05300
C2360       C  0.20370774  0.33107420  0.19408516    -0.22700
H2361       H  0.18639194  0.37317640  0.20444206     0.19100
H2362       H  0.15409979  0.36510770  0.16726986     0.17900
H2363       H  0.13458768  0.41123883  0.16917971     0.14200
H2364       H  0.21375721  0.32643328  0.20160799     0.14000
H2365       H  0.16341832  0.41764382  0.20069713     0.32200
H2366       H  0.18532583  0.32343327  0.16988820     0.35000
C2367       C  0.06769131  0.50479209  0.13271285     0.20600
C2368       C  0.06734504  0.51711361  0.12353485    -0.39300
C2369       C  0.06311898  0.50427543  0.11460723     0.19500
C2370       C  0.05922989  0.48101110  0.11486092     0.22200
C2371       C  0.06027953  0.46872165  0.12396822    -0.39800
C2372       C  0.06470930  0.48148963  0.13282992     0.21000
N2373       N  0.07271768  0.51275878  0.14222479    -0.33100
C2374       C  0.07355740  0.49427868  0.14836150    -0.10700
C2375       C  0.06856745  0.47456443  0.14274582    -0.29500
N2376       N  0.05248107  0.47284088  0.10552502    -0.46100
C2377       C  0.05223761  0.49092948  0.09919816    -0.05300
C2378       C  0.05930723  0.51086172  0.10455266    -0.22700
H2379       H  0.06988702  0.53532601  0.12335816     0.19100
H2380       H  0.05758242  0.45051182  0.12414832     0.17900
H2381       H  0.06973967  0.45733763  0.14550911     0.14200
H2382       H  0.05874145  0.52794335  0.10160725     0.14000
H2383       H  0.07787561  0.52949197  0.14432032     0.32200
H2384       H  0.04667467  0.45605177  0.10362771     0.35000
C2385       C  0.94107732  0.00562370  0.80892215     0.20600
C2386       C  0.90876860  0.00853693  0.80240711    -0.39300
C2387       C  0.87198400  0.01076204  0.80719090     0.19500
C2388       C  0.86755380  0.01012113  0.81764418     0.22200
C2389       C  0.89982203  0.00724835  0.82414284    -0.39800
C2390       C  0.93651430  0.00499355  0.81936856     0.21000
N2391       N  0.97935204  0.00369526  0.80634672    -0.33100
C2392       C  0.99913191  0.00194338  0.81526419    -0.10700
C2393       C  0.97328378  0.00251240  0.82350488    -0.29500
N2394       N  0.82927968  0.01116111  0.82026414    -0.46100
C2395       C  0.80916218  0.01232065  0.81139154    -0.05300
C2396       C  0.83488967  0.01234802  0.80310062    -0.22700
H2397       H  0.91193880  0.00883341  0.79422691     0.19100
H2398       H  0.89659015  0.00660536  0.83231818     0.17900
H2399       H  0.98061836  0.00213968  0.83150562     0.14200
H2400       H  0.82730858  0.01202422  0.79511614     0.14000
H2401       H  0.99131708  0.00438621  0.79904179     0.32200
H2402       H  0.81755065  0.00986015  0.82757864     0.35000
C2403       C  0.44158728  0.99214864  0.80975089     0.20600
C2404       C  0.40862577  0.99445586  0.80342756    -0.39300
C2405       C  0.37198653  0.99475008  0.80835686     0.19500
C2406       C  0.36813313  0.99290548  0.81879397     0.22200
C2407       C  0.40112293  0.99044479  0.82513015    -0.39800
C2408       C  0.43784247  0.99016455  0.82018998     0.21000
N2409       N  0.47976542  0.99322637  0.80700387    -0.33100
C2410       C  0.50049640  0.99223004  0.81578587    -0.10700
C2411       C  0.47530302  0.98993554  0.82413416    -0.29500
N2412       N  0.32987549  0.99353529  0.82154768    -0.46100
C2413       C  0.30935435  0.99554885  0.81274909    -0.05300
C2414       C  0.33472110  0.99649065  0.80440878    -0.22700
H2415       H  0.41130956  0.99625503  0.79527258     0.19100
H2416       H  0.39848845  0.98925239  0.83330786     0.17900
H2417       H  0.48326421  0.98972442  0.83209575     0.14200
H2418       H  0.32683420  0.99769982  0.79645899     0.14000
H2419       H  0.49085187  0.99592718  0.79969926     0.32200
H2420       H  0.31845263  0.99195110  0.82888295     0.35000
C2421       C  0.75531466  0.98591733  0.99272330     0.20600
C2422       C  0.74012506  0.97565383  0.00152279    -0.39300
C2423       C  0.74439058  0.98796591  0.01051317     0.19500
C2424       C  0.76261156  0.00884906  0.01065801     0.22200
C2425       C  0.77777042  0.01914250  0.00185294    -0.39800
C2426       C  0.77336946  0.00685316  0.99284680     0.21000
N2427       N  0.75227549  0.97834013  0.98319543    -0.33100
C2428       C  0.76788413  0.99460146  0.97713001    -0.10700
C2429       C  0.78201434  0.01259741  0.98288632    -0.29500
N2430       N  0.76501754  0.01653925  0.02018337    -0.46100
C2431       C  0.74857079  0.00044083  0.02619670    -0.05300
C2432       C  0.73479757  0.98240847  0.02042624    -0.22700
H2433       H  0.72585140  0.95932185  0.00135766     0.19100
H2434       H  0.79176621  0.03555413  0.00200908     0.17900
H2435       H  0.79379665  0.02845238  0.98013068     0.14200
H2436       H  0.72225456  0.96672472  0.02315598     0.14000
H2437       H  0.73801326  0.96358226  0.98090313     0.32200
H2438       H  0.77903262  0.03134820  0.02251216     0.35000
C2439       C  0.72127503  0.99850831  0.88471807     0.20600
C2440       C  0.73960155  0.99894401  0.87516466    -0.39300
C2441       C  0.71420184  0.99941826  0.86679067     0.19500
C2442       C  0.67367657  0.99989530  0.86791696     0.22200
C2443       C  0.65532611  0.99910932  0.87747270    -0.39800
C2444       C  0.68073862  0.99820066  0.88584572     0.21000
N2445       N  0.73892152  0.99946134  0.89379736    -0.33100
C2446       C  0.70957974  0.99954027  0.90076581    -0.10700
C2447       C  0.67273828  0.99846288  0.89614031    -0.29500
N2448       N  0.65611485  0.00187746  0.85884745    -0.46100
C2449       C  0.68551509  0.00229014  0.85188509    -0.05300
C2450       C  0.72228222  0.00063163  0.85651440    -0.22700
H2451       H  0.77129894  0.99936531  0.87432861     0.19100
H2452       H  0.62363977  0.99965700  0.87832284     0.17900
H2453       H  0.64416837  0.99914619  0.89977078     0.14200
H2454       H  0.75089487  0.00122694  0.85290293     0.14000
H2455       H  0.76914982  0.00056582  0.89518398     0.32200
H2456       H  0.62589672  0.00309983  0.85745996     0.35000
C2457       C  0.24966920  0.00636151  0.01106809     0.20600
C2458       C  0.25762794  0.01966162  0.00244895    -0.39300
C2459       C  0.26310097  0.00782544  0.99336187     0.19500
C2460       C  0.26062664  0.98452930  0.99296013     0.22200
C2461       C  0.25268586  0.97122802  0.00158163    -0.39800
C2462       C  0.24722078  0.98306602  0.01067574     0.21000
N2463       N  0.24620617  0.01349746  0.02066292    -0.33100
C2464       C  0.24175497  0.99473340  0.02649850    -0.10700
C2465       C  0.24176051  0.97532670  0.02051781    -0.29500
N2466       N  0.26432867  0.97739559  0.98336820    -0.46100
C2467       C  0.26901614  0.99618522  0.97756901    -0.05300
C2468       C  0.26886401  0.01557831  0.98354548    -0.22700
H2469       H  0.25949861  0.03788655  0.00281002     0.19100
H2470       H  0.25093309  0.95299967  0.00122276     0.17900
H2471       H  0.24169626  0.95794799  0.02308853     0.14200
H2472       H  0.26920533  0.03296128  0.98098041     0.14000
H2473       H  0.24950180  0.03010169  0.02318432     0.32200
H2474       H  0.26124041  0.96079238  0.98082728     0.35000
C2475       C  0.02631186  0.99208130  0.93532929     0.20600
C2476       C  0.99379952  0.99069327  0.92880116    -0.39300
C2477       C  0.95681864  0.98971797  0.93355116     0.19500
C2478       C  0.95227123  0.99014728  0.94399979     0.22200
C2479       C  0.98481747  0.99148840  0.95053378    -0.39800
C2480       C  0.02183775  0.99243865  0.94578050     0.21000
N2481       N  0.06466058  0.99304283  0.93272837    -0.33100
C2482       C  0.08474136  0.99392066  0.94161563    -0.10700
C2483       C  0.05894837  0.99366768  0.94989346    -0.29500
N2484       N  0.91382446  0.99043526  0.94655962    -0.46100
C2485       C  0.89386122  0.99034336  0.93764060    -0.05300
C2486       C  0.91977187  0.98965507  0.92940187    -0.22700
H2487       H  0.99699149  0.99065817  0.92062084     0.19100
H2488       H  0.98157443  0.99202034  0.95870819     0.17900
H2489       H  0.06643464  0.99388520  0.95788439     0.14200
H2490       H  0.91247308  0.99035893  0.92140275     0.14000
H2491       H  0.07641524  0.99266656  0.92539841     0.32200
H2492       H  0.90202242  0.99175198  0.95386129     0.35000
C2493       C  0.45529932  0.00747130  0.93386015     0.20600
C2494       C  0.49090681  0.00813501  0.92846057    -0.39300
C2495       C  0.52503183  0.00970584  0.93438411     0.19500
C2496       C  0.52361151  0.01059539  0.94488094     0.22200
C2497       C  0.48797456  0.00991512  0.95028720    -0.39800
C2498       C  0.45383452  0.00827090  0.94435794     0.21000
N2499       N  0.41895614  0.00600103  0.92996612    -0.33100
C2500       C  0.39401025  0.00584538  0.93801018    -0.10700
C2501       C  0.41467012  0.00717381  0.94715162    -0.29500
N2502       N  0.56006969  0.01069216  0.94877127    -0.46100
C2503       C  0.58497693  0.00962552  0.94072487    -0.05300
C2504       C  0.56420146  0.00921700  0.93159097    -0.22700
H2505       H  0.49195937  0.00715586  0.92025692     0.19100
H2506       H  0.48697451  0.01029429  0.95850239     0.17900
H2507       H  0.40267107  0.00773157  0.95476360     0.14200
H2508       H  0.57603192  0.00740439  0.92400242     0.14000
H2509       H  0.41156951  0.00541630  0.92226910     0.32200
H2510       H  0.56747848  0.01035404  0.95647231     0.35000
C2511       C  0.19658517  0.01320583  0.88615061     0.20600
C2512       C  0.19530893  0.02654466  0.87734559    -0.39300
C2513       C  0.19351494  0.01472777  0.86816482     0.19500
C2514       C  0.19360698  0.99137684  0.86773823     0.22200
C2515       C  0.19425713  0.97799987  0.87659488    -0.39800
C2516       C  0.19548535  0.98985248  0.88582950     0.21000
N2517       N  0.20077829  0.02043396  0.89572585    -0.33100
C2518       C  0.20203797  0.00164241  0.90161521    -0.10700
C2519       C  0.19836771  0.98217415  0.89574208    -0.29500
N2520       N  0.19098905  0.98433189  0.85804055    -0.46100
C2521       C  0.18844255  0.00337477  0.85231810    -0.05300
C2522       C  0.18989745  0.02261685  0.85837637    -0.22700
H2523       H  0.19576284  0.04480948  0.87762479     0.19100
H2524       H  0.19396684  0.95973891  0.87631614     0.17900
H2525       H  0.20064751  0.96482378  0.89828384     0.14200
H2526       H  0.18687123  0.04002665  0.85596513     0.14000
H2527       H  0.20439090  0.03714003  0.89807868     0.32200
H2528       H  0.18852524  0.96768184  0.85552931     0.35000
C2529       C  0.09008537  0.10534752  0.81063964     0.20600
C2530       C  0.07583484  0.12354965  0.80474721    -0.39300
C2531       C  0.06804117  0.14366801  0.81009543     0.19500
C2532       C  0.07386120  0.14521416  0.82047380     0.22200
C2533       C  0.08806920  0.12723476  0.82629994    -0.39800
C2534       C  0.09594200  0.10739661  0.82099649     0.21000
N2535       N  0.09756503  0.08399094  0.80763493    -0.33100
C2536       C  0.10777900  0.07259289  0.81621836    -0.10700
C2537       C  0.10743819  0.08676310  0.82463022    -0.29500
N2538       N  0.06511900  0.16588304  0.82383682    -0.46100
C2539       C  0.05397978  0.17803448  0.81559484    -0.05300
C2540       C  0.05511368  0.16472121  0.80682747    -0.22700
H2541       H  0.07093875  0.12211753  0.79665341     0.19100
H2542       H  0.09233363  0.12854405  0.83442589     0.17900
H2543       H  0.11253974  0.08220049  0.83249249     0.14200
H2544       H  0.04877865  0.16992791  0.79911204     0.14000
H2545       H  0.09356519  0.07729557  0.80037907     0.32200
H2546       H  0.06792083  0.17157951  0.83130539     0.35000
C2547       C  0.71011011  0.24037961  0.81044986     0.20600
C2548       C  0.74260174  0.23661513  0.80414708    -0.39300
C2549       C  0.77937978  0.23695224  0.80895056     0.19500
C2550       C  0.78385946  0.24090049  0.81924363     0.22200
C2551       C  0.75119195  0.24442587  0.82559846    -0.39800
C2552       C  0.71421690  0.24391091  0.82078826     0.21000
N2553       N  0.67204587  0.24111598  0.80767415    -0.33100
C2554       C  0.65160236  0.24491674  0.81632801    -0.10700
C2555       C  0.67688248  0.24668703  0.82467015    -0.29500
N2556       N  0.82234049  0.24212251  0.82172787    -0.46100
C2557       C  0.84222672  0.23897617  0.81290225    -0.05300
C2558       C  0.81630682  0.23544455  0.80484083    -0.22700
H2559       H  0.73954526  0.23402328  0.79605060     0.19100
H2560       H  0.75432236  0.24768227  0.83364212     0.17900
H2561       H  0.66893594  0.24942740  0.83253259     0.14200
H2562       H  0.82351079  0.23350805  0.79687985     0.14000
H2563       H  0.66064272  0.23866935  0.80039220     0.32200
H2564       H  0.83418756  0.24609447  0.82882149     0.35000
C2565       C  0.21360567  0.25509832  0.81605885     0.20600
C2566       C  0.24910281  0.25569489  0.82147415    -0.39300
C2567       C  0.28336112  0.25481401  0.81560758     0.19500
C2568       C  0.28232409  0.25343118  0.80512282     0.22200
C2569       C  0.24664257  0.25272533  0.79967825    -0.39800
C2570       C  0.21216607  0.25363936  0.80557882     0.21000
N2571       N  0.17730887  0.25514776  0.81999123    -0.33100
C2572       C  0.15208809  0.25358615  0.81204357    -0.10700
C2573       C  0.17271885  0.25272206  0.80285554    -0.29500
N2574       N  0.31905817  0.25325103  0.80133903    -0.46100
C2575       C  0.34354608  0.25455461  0.80947565    -0.05300
C2576       C  0.32231615  0.25546492  0.81851822    -0.22700
H2577       H  0.24993809  0.25674304  0.82967810     0.19100
H2578       H  0.24582352  0.25153249  0.79147980     0.17900
H2579       H  0.16066503  0.25082246  0.79529832     0.14200
H2580       H  0.33379136  0.25689789  0.82615866     0.14000
H2581       H  0.17019859  0.25558207  0.82770962     0.32200
H2582       H  0.32696306  0.25261730  0.79367626     0.35000
C2583       C  0.55291510  0.14377072  0.82052790     0.20600
C2584       C  0.56122813  0.12498913  0.82658823    -0.39300
C2585       C  0.57525780  0.10604093  0.82147906     0.19500
C2586       C  0.58067976  0.10553045  0.81106915     0.22200
C2587       C  0.57278990  0.12464551  0.80494594    -0.39800
C2588       C  0.55864621  0.14387709  0.81011915     0.21000
N2589       N  0.54103640  0.16399311  0.82380258    -0.33100
C2590       C  0.53962612  0.17758272  0.81552781    -0.10700
C2591       C  0.54999897  0.16559261  0.80676181    -0.29500
N2592       N  0.59261983  0.08476668  0.80813550    -0.46100
C2593       C  0.59446557  0.07223803  0.81680735    -0.05300
C2594       C  0.58429862  0.08512160  0.82523393    -0.22700
H2595       H  0.55704518  0.12513030  0.83474026     0.19100
H2596       H  0.57733319  0.12456774  0.79681023     0.17900
H2597       H  0.55338517  0.17220802  0.79913887     0.14200
H2598       H  0.58217922  0.07962210  0.83306674     0.14000
H2599       H  0.53637241  0.16859174  0.83136396     0.32200
H2600       H  0.59786291  0.07929235  0.80072447     0.35000
C2601       C  0.87476496  0.25866122  0.99166645     0.20600
C2602       C  0.89027140  0.26827749  0.00055034    -0.39300
C2603       C  0.88590634  0.25538504  0.00941796     0.19500
C2604       C  0.86739531  0.23457934  0.00934917     0.22200
C2605       C  0.85170605  0.22503668  0.00048939    -0.39800
C2606       C  0.85614564  0.23788424  0.99162460     0.21000
N2607       N  0.87806009  0.26668274  0.98219161    -0.33100
C2608       C  0.86194736  0.25086138  0.97602574    -0.10700
C2609       C  0.84728058  0.23273796  0.98164655    -0.29500
N2610       N  0.86530887  0.22610042  0.01875407    -0.46100
C2611       C  0.88203302  0.24165128  0.02493308    -0.05300
C2612       C  0.89582607  0.26012130  0.01938083    -0.22700
H2613       H  0.90494739  0.28449758  0.00052838     0.19100
H2614       H  0.83742370  0.20870125  0.00049665     0.17900
H2615       H  0.83503821  0.21713687  0.97878431     0.14200
H2616       H  0.90859455  0.27553835  0.02229170     0.14000
H2617       H  0.89281266  0.28139001  0.97999516     0.32200
H2618       H  0.85120062  0.21115807  0.02091161     0.35000
C2619       C  0.83108694  0.14237595  0.94044838     0.20600
C2620       C  0.81856974  0.12384949  0.94638343    -0.39300
C2621       C  0.81355395  0.10333189  0.94114590     0.19500
C2622       C  0.82062799  0.10161188  0.93082598     0.22200
C2623       C  0.83318256  0.11995795  0.92493869    -0.39800
C2624       C  0.83803103  0.14030577  0.93013580     0.21000
N2625       N  0.83564638  0.16403191  0.94338067    -0.33100
C2626       C  0.84511039  0.17569389  0.93481551    -0.10700
C2627       C  0.84718298  0.16135755  0.92645567    -0.29500
N2628       N  0.81336832  0.08066061  0.92754271    -0.46100
C2629       C  0.80157334  0.06863206  0.93577344    -0.05300
C2630       C  0.80126748  0.08220048  0.94445523    -0.22700
H2631       H  0.81251446  0.12538847  0.95442150     0.19100
H2632       H  0.83806705  0.11858466  0.91683807     0.17900
H2633       H  0.85270459  0.16593744  0.91861534     0.14200
H2634       H  0.79345343  0.07726276  0.95211577     0.14000
H2635       H  0.83070589  0.17062637  0.95061733     0.32200
H2636       H  0.81655719  0.07486123  0.92010008     0.35000
C2637       C  0.92320724  0.25445789  0.88355214     0.20600
C2638       C  0.90884144  0.25709590  0.87363015    -0.39300
C2639       C  0.93629217  0.25368901  0.86585297     0.19500
C2640       C  0.97490609  0.24763473  0.86783965     0.22200
C2641       C  0.98943497  0.24522014  0.87778427    -0.39800
C2642       C  0.96211517  0.24909718  0.88558443     0.21000
N2643       N  0.90238619  0.25557928  0.89217568    -0.33100
C2644       C  0.92812488  0.25122041  0.89978444    -0.10700
C2645       C  0.96588399  0.24726298  0.89601999    -0.29500
N2646       N  0.99461128  0.24442064  0.85913267    -0.46100
C2647       C  0.96857012  0.24876508  0.85155759    -0.05300
C2648       C  0.93186384  0.25473332  0.85543785    -0.22700
H2649       H  0.87836639  0.26121124  0.87208422     0.19100
H2650       H  0.01959992  0.24039599  0.87932271     0.17900
H2651       H  0.99178599  0.24230372  0.90026659     0.14200
H2652       H  0.90540082  0.25876055  0.85122413     0.14000
H2653       H  0.87214053  0.25843716  0.89284817     0.32200
H2654       H  0.02407115  0.23961743  0.85837763     0.35000
C2655       C  0.35630127  0.24219612  0.99041361     0.20600
C2656       C  0.35245877  0.22803779  0.99890470    -0.39300
C2657       C  0.36535507  0.23713662  0.00815534     0.19500
C2658       C  0.38094167  0.25866163  0.00895905     0.22200
C2659       C  0.38476165  0.27282180  0.00046965    -0.39800
C2660       C  0.37183226  0.26373307  0.99122360     0.21000
N2661       N  0.34854276  0.23709550  0.98064966    -0.33100
C2662       C  0.35973534  0.25549204  0.97523344    -0.10700
C2663       C  0.37386900  0.27247855  0.98159165    -0.29500
N2664       N  0.38883275  0.26374673  0.01871727    -0.46100
C2665       C  0.37762742  0.24536744  0.02414589    -0.05300
C2666       C  0.36335785  0.22839961  0.01779455    -0.22700
H2667       H  0.34029826  0.21119378  0.99836272     0.19100
H2668       H  0.39695681  0.28965832  0.00100843     0.17900
H2669       H  0.38666000  0.28849895  0.97937620     0.14200
H2670       H  0.35060521  0.21237597  0.02001847     0.14000
H2671       H  0.33893559  0.22159985  0.97780888     0.32200
H2672       H  0.39859437  0.27921957  0.02154765     0.35000
C2673       C  0.67408388  0.24690876  0.93293413     0.20600
C2674       C  0.63848716  0.24496670  0.92760084    -0.39300
C2675       C  0.60425046  0.24668400  0.93347034     0.19500
C2676       C  0.60554030  0.24995658  0.94386731     0.22200
C2677       C  0.64119617  0.25185721  0.94921370    -0.39800
C2678       C  0.67549493  0.25025038  0.94332552     0.21000
N2679       N  0.71048676  0.24572858  0.92906753    -0.33100
C2680       C  0.73549759  0.24824618  0.93701413    -0.10700
C2681       C  0.71477480  0.25122762  0.94607065    -0.29500
N2682       N  0.56901762  0.25172724  0.94764832    -0.46100
C2683       C  0.54424287  0.24976839  0.93960906    -0.05300
C2684       C  0.56513616  0.24644771  0.93062046    -0.22700
H2685       H  0.63755478  0.24249108  0.91946256     0.19100
H2686       H  0.64212235  0.25455860  0.95733681     0.17900
H2687       H  0.72674883  0.25335246  0.95362451     0.14200
H2688       H  0.55338822  0.24473833  0.92302057     0.14000
H2689       H  0.71784204  0.24302394  0.92146207     0.32200
H2690       H  0.56146839  0.25470253  0.95522010     0.35000
C2691       C  0.17680411  0.24662585  0.94182995     0.20600
C2692       C  0.14477090  0.24465394  0.94848590    -0.39300
C2693       C  0.10795959  0.24141825  0.94387881     0.19500
C2694       C  0.10315934  0.24030234  0.93344737     0.22200
C2695       C  0.13525073  0.24209989  0.92679571    -0.39800
C2696       C  0.17206665  0.24534856  0.93140329     0.21000
N2697       N  0.21502377  0.24920659  0.94428215    -0.33100
C2698       C  0.23471776  0.24939066  0.93532351    -0.10700
C2699       C  0.20881694  0.24721963  0.92714932    -0.29500
N2700       N  0.06473775  0.23904150  0.93097891    -0.46100
C2701       C  0.04504651  0.23953412  0.93993272    -0.05300
C2702       C  0.07110458  0.24061851  0.94811838    -0.22700
H2703       H  0.14814539  0.24584895  0.95664168     0.19100
H2704       H  0.13178427  0.24133012  0.91863183     0.17900
H2705       H  0.21612015  0.24611295  0.91916254     0.14200
H2706       H  0.06389439  0.24232544  0.95608927     0.14000
H2707       H  0.22704111  0.24988908  0.95157852     0.32200
H2708       H  0.05267279  0.23916423  0.92368050     0.35000
C2709       C  0.29971753  0.10658970  0.94211646     0.20600
C2710       C  0.31730634  0.12464880  0.94741417    -0.39300
C2711       C  0.32314740  0.14462784  0.94174593     0.19500
C2712       C  0.31253220  0.14610380  0.93161785     0.22200
C2713       C  0.29488838  0.12833287  0.92640150    -0.39800
C2714       C  0.28887808  0.10867418  0.93202521     0.21000
N2715       N  0.29386851  0.08520980  0.94537030    -0.33100
C2716       C  0.27968118  0.07385042  0.93719835    -0.10700
C2717       C  0.27576144  0.08808391  0.92882840    -0.29500
N2718       N  0.32085755  0.16645876  0.92781956    -0.46100
C2719       C  0.33645357  0.17855312  0.93553292    -0.05300
C2720       C  0.33859080  0.16550495  0.94441111    -0.22700
H2721       H  0.32625624  0.12315460  0.95527599     0.19100
H2722       H  0.28705271  0.12960178  0.91844864     0.17900
H2723       H  0.26750250  0.08350305  0.92116331     0.14200
H2724       H  0.34885557  0.17073908  0.95181843     0.14000
H2725       H  0.30192767  0.07840577  0.95239826     0.32200
H2726       H  0.31483679  0.17202840  0.92044050     0.35000
C2727       C  0.43938298  0.23873448  0.86542922     0.20600
C2728       C  0.43324842  0.22492273  0.87395091    -0.39300
C2729       C  0.43306801  0.23594063  0.88334453     0.19500
C2730       C  0.43912959  0.25895373  0.88424525     0.22200
C2731       C  0.44474700  0.27287291  0.87567050    -0.39800
C2732       C  0.44436633  0.26186050  0.86620727     0.21000
N2733       N  0.44372348  0.23199039  0.85577663    -0.33100
C2734       C  0.45127798  0.25086367  0.85027188    -0.10700
C2735       C  0.45140230  0.26995828  0.85648790    -0.29500
N2736       N  0.43670116  0.26528950  0.89404976    -0.46100
C2737       C  0.42815835  0.24621216  0.89934804    -0.05300
C2738       C  0.42585149  0.22759259  0.89292481    -0.22700
H2739       H  0.42908631  0.20686227  0.87331273     0.19100
H2740       H  0.44929750  0.29089581  0.87632206     0.17900
H2741       H  0.45910797  0.28705387  0.85434544     0.14200
H2742       H  0.41810119  0.21042655  0.89494721     0.14000
H2743       H  0.44374359  0.21535481  0.85316065     0.32200
H2744       H  0.43827300  0.28172144  0.89687764     0.35000
C2745       C  0.73528608  0.86092436  0.80756158     0.20600
C2746       C  0.74055165  0.88054977  0.80184591    -0.39300
C2747       C  0.73153299  0.90061022  0.80681277     0.19500
C2748       C  0.71835827  0.90126468  0.81676093     0.22200
C2749       C  0.71342898  0.88146990  0.82256320    -0.39800
C2750       C  0.72242164  0.86118749  0.81754932     0.21000
N2751       N  0.73786760  0.83983642  0.80411081    -0.33100
C2752       C  0.72642220  0.82636954  0.81186973    -0.10700
C2753       C  0.71716080  0.83893898  0.82049871    -0.29500
N2754       N  0.70916090  0.92256145  0.81939854    -0.46100
C2755       C  0.71646073  0.93525276  0.81100557    -0.05300
C2756       C  0.73065571  0.92214645  0.80306193    -0.22700
H2757       H  0.74937109  0.88014653  0.79394505     0.19100
H2758       H  0.70195074  0.88177623  0.83023070     0.17900
H2759       H  0.70532143  0.83279059  0.82762170     0.14200
H2760       H  0.73800812  0.92755187  0.79542901     0.14000
H2761       H  0.74508451  0.83494561  0.79672043     0.32200
H2762       H  0.69754454  0.92799053  0.82631903     0.35000
C2763       C  0.18667047  0.85116765  0.81836858     0.20600
C2764       C  0.19520998  0.87088230  0.82390547    -0.39300
C2765       C  0.18646548  0.89142024  0.81896860     0.19500
C2766       C  0.17044635  0.89204937  0.80929591     0.22200
C2767       C  0.16095519  0.87252528  0.80392676    -0.39800
C2768       C  0.16980304  0.85220453  0.80880231     0.21000
N2769       N  0.19721290  0.82975453  0.82061937    -0.33100
C2770       C  0.18739169  0.81742780  0.81231720    -0.10700
C2771       C  0.16948171  0.83081661  0.80494174    -0.29500
N2772       N  0.16916277  0.91319893  0.80572113    -0.46100
C2773       C  0.18413816  0.92636462  0.81314197    -0.05300
C2774       C  0.19478643  0.91351178  0.82162975    -0.22700
H2775       H  0.20968244  0.87030933  0.83122459     0.19100
H2776       H  0.14983080  0.87312458  0.79622423     0.17900
H2777       H  0.16024759  0.82584658  0.79740254     0.14200
H2778       H  0.20888657  0.91936024  0.82850521     0.14000
H2779       H  0.21241449  0.82418685  0.82705383     0.32200
H2780       H  0.15973619  0.91832070  0.79851670     0.35000
C2781       C  0.96673869  0.74105464  0.80793332     0.20600
C2782       C  0.99971272  0.73834535  0.80162774    -0.39300
C2783       C  0.03642360  0.73790856  0.80656015     0.19500
C2784       C  0.04032183  0.74002772  0.81697846     0.22200
C2785       C  0.00730507  0.74262655  0.82329737    -0.39800
C2786       C  0.97057043  0.74304011  0.81835922     0.21000
N2787       N  0.92855030  0.74211899  0.80512380    -0.33100
C2788       C  0.90789930  0.74471014  0.81386002    -0.10700
C2789       C  0.93321961  0.74536149  0.82223852    -0.29500
N2790       N  0.07866784  0.74066099  0.81967864    -0.46100
C2791       C  0.09928993  0.73907232  0.81087718    -0.05300
C2792       C  0.07379523  0.73712019  0.80258623    -0.22700
H2793       H  0.99707739  0.73706503  0.79345729     0.19100
H2794       H  0.01000662  0.74454530  0.83144030     0.17900
H2795       H  0.92525031  0.74696161  0.83016546     0.14200
H2796       H  0.08158205  0.73663922  0.79461590     0.14000
H2797       H  0.91725285  0.74071062  0.79777522     0.32200
H2798       H  0.08998796  0.74333520  0.82695258     0.35000
C2799       C  0.46655427  0.75794826  0.80744160     0.20600
C2800       C  0.49885270  0.76904841  0.80305893    -0.39300
C2801       C  0.53572482  0.76391484  0.80729693     0.19500
C2802       C  0.54031086  0.74900934  0.81533967     0.22200
C2803       C  0.50804094  0.73780998  0.81969163    -0.39800
C2804       C  0.47117691  0.74287335  0.81541724     0.21000
N2805       N  0.42824649  0.76024867  0.80495737    -0.33100
C2806       C  0.40841455  0.74651705  0.81143406    -0.10700
C2807       C  0.43427730  0.73538155  0.81801435    -0.29500
N2808       N  0.57863484  0.74659931  0.81775989    -0.46100
C2809       C  0.59847166  0.75982290  0.81107215    -0.05300
C2810       C  0.57268574  0.77094579  0.80449908    -0.22700
H2811       H  0.49558401  0.78073189  0.79677504     0.19100
H2812       H  0.51135378  0.72598954  0.82592295     0.17900
H2813       H  0.42689172  0.72384959  0.82412112     0.14200
H2814       H  0.58016930  0.78211016  0.79826431     0.14000
H2815       H  0.41632421  0.77091906  0.79942230     0.32200
H2816       H  0.59061194  0.73585147  0.82325996     0.35000
C2817       C  0.63574194  0.73589730  0.00774071     0.20600
C2818       C  0.62439341  0.72450013  0.99888298    -0.39300
C2819       C  0.62463123  0.73739012  0.98995754     0.19500
C2820       C  0.63555315  0.75989615  0.98990759     0.22200
C2821       C  0.64697043  0.77131260  0.99877418    -0.39800
C2822       C  0.64665658  0.75840458  0.00772400     0.21000
N2823       N  0.63553152  0.72768212  0.01721956    -0.33100
C2824       C  0.64605839  0.74499499  0.02336580    -0.10700
C2825       C  0.65375416  0.76448006  0.01770855    -0.29500
N2826       N  0.63584801  0.76797572  0.98039676    -0.46100
C2827       C  0.62542934  0.75049710  0.97432593    -0.05300
C2828       C  0.61760490  0.73115163  0.98002081    -0.22700
H2829       H  0.61598852  0.70687218  0.99894950     0.19100
H2830       H  0.65547916  0.78892356  0.99869610     0.17900
H2831       H  0.66050574  0.78115918  0.02055258     0.14200
H2832       H  0.61104867  0.71440469  0.97722432     0.14000
H2833       H  0.62650743  0.71153379  0.01943433     0.32200
H2834       H  0.64500002  0.78405631  0.97811433     0.35000
C2835       C  0.68626016  0.89705746  0.93502214     0.20600
C2836       C  0.69201501  0.87792421  0.92885038    -0.39300
C2837       C  0.68857327  0.85687658  0.93380152     0.19500
C2838       C  0.68072319  0.85531475  0.94410137     0.22200
C2839       C  0.67470620  0.87425915  0.95019202    -0.39800
C2840       C  0.67754454  0.89506045  0.94525504     0.21000
N2841       N  0.68957739  0.91899719  0.93239360    -0.33100
C2842       C  0.68283706  0.93077844  0.94106128    -0.10700
C2843       C  0.67489151  0.91638180  0.94917772    -0.29500
N2844       N  0.68062312  0.83379475  0.94718424    -0.46100
C2845       C  0.68796535  0.82123762  0.93883490    -0.05300
C2846       C  0.69288815  0.83497049  0.93025824    -0.22700
H2847       H  0.69911728  0.87931936  0.92085917     0.19100
H2848       H  0.66882659  0.87289387  0.95825312     0.17900
H2849       H  0.66957971  0.92090006  0.95702119     0.14200
H2850       H  0.69982079  0.82971339  0.92259939     0.14000
H2851       H  0.69712643  0.92549665  0.92526899     0.32200
H2852       H  0.67593349  0.82796314  0.95458661     0.35000
C2853       C  0.69853323  0.73568584  0.88325840     0.20600
C2854       C  0.70368603  0.72265619  0.87454614    -0.39300
C2855       C  0.70598511  0.73475013  0.86545691     0.19500
C2856       C  0.70274774  0.75805306  0.86501030     0.22200
C2857       C  0.69806274  0.77117409  0.87378761    -0.39800
C2858       C  0.69641166  0.75904646  0.88294939     0.21000
N2859       N  0.69406436  0.72802749  0.89274772    -0.33100
C2860       C  0.68954283  0.74659815  0.89856074    -0.10700
C2861       C  0.69114140  0.76634469  0.89278641    -0.29500
N2862       N  0.70727065  0.76541500  0.85541736    -0.46100
C2863       C  0.71428681  0.74662432  0.84986092    -0.05300
C2864       C  0.71352771  0.72722816  0.85583424    -0.22700
H2865       H  0.70604115  0.70443428  0.87483652     0.19100
H2866       H  0.69612811  0.78940929  0.87351066     0.17900
H2867       H  0.68659958  0.78349876  0.89534643     0.14200
H2868       H  0.71960005  0.71005352  0.85351456     0.14000
H2869       H  0.69297335  0.71116926  0.89509951     0.32200
H2870       H  0.70810082  0.78217130  0.85292128     0.35000
C2871       C  0.14547161  0.75767258  0.00858980     0.20600
C2872       C  0.14505718  0.77219865  0.00012218    -0.39300
C2873       C  0.13268856  0.76247783  0.99091486     0.19500
C2874       C  0.12112951  0.74012230  0.99019093     0.22200
C2875       C  0.12165194  0.72565804  0.99862633    -0.39800
C2876       C  0.13438428  0.73527290  0.00777418     0.21000
N2877       N  0.15339430  0.76296493  0.01835029    -0.33100
C2878       C  0.14672342  0.74377437  0.02375315    -0.10700
C2879       C  0.13555825  0.72616287  0.01735072    -0.29500
N2880       N  0.11384016  0.73444001  0.98047635    -0.46100
C2881       C  0.12181476  0.75315421  0.97491734    -0.05300
C2882       C  0.13300027  0.77106103  0.98119354    -0.22700
H2883       H  0.15408352  0.78968427  0.00062930     0.19100
H2884       H  0.11300066  0.70811239  0.99809955     0.17900
H2885       H  0.12595274  0.70941690  0.01955322     0.14200
H2886       H  0.14369280  0.78749391  0.97885145     0.14000
H2887       H  0.15944247  0.77899910  0.02123787     0.32200
H2888       H  0.10781871  0.71828572  0.97772235     0.35000
C2889       C  0.22012446  0.85025704  0.94540298     0.20600
C2890       C  0.22173626  0.86940748  0.95156758    -0.39300
C2891       C  0.21847993  0.89009406  0.94651651     0.19500
C2892       C  0.21489533  0.89178453  0.93606653     0.22200
C2893       C  0.21321918  0.87248155  0.92986163    -0.39800
C2894       C  0.21550166  0.85158946  0.93496988     0.21000
N2895       N  0.21926503  0.82877129  0.94855949    -0.33100
C2896       C  0.21323921  0.81608295  0.94016524    -0.10700
C2897       C  0.21102448  0.82968320  0.93147607    -0.29500
N2898       N  0.21045458  0.91354265  0.93324253    -0.46100
C2899       C  0.21034238  0.92550205  0.94201621    -0.05300
C2900       C  0.21552016  0.91144862  0.95041387    -0.22700
H2901       H  0.22371934  0.86824094  0.95976000     0.19100
H2902       H  0.20887265  0.87362926  0.92173347     0.17900
H2903       H  0.20540080  0.82437027  0.92375519     0.14200
H2904       H  0.21611434  0.91620262  0.95834657     0.14000
H2905       H  0.22082829  0.82316166  0.95608284     0.32200
H2906       H  0.20627411  0.91975732  0.92588779     0.35000
C2907       C  0.86716455  0.75404692  0.93140775     0.20600
C2908       C  0.90021023  0.75869091  0.92531902    -0.39300
C2909       C  0.93693425  0.75702694  0.93021879     0.19500
C2910       C  0.94051041  0.75120233  0.94037323     0.22200
C2911       C  0.90761128  0.74642451  0.94640542    -0.39800
C2912       C  0.87105794  0.74814029  0.94154064     0.21000
N2913       N  0.82881583  0.75527345  0.92877747    -0.33100
C2914       C  0.80844907  0.75030809  0.93737641    -0.10700
C2915       C  0.83389015  0.74560612  0.94541832    -0.29500
N2916       N  0.97856298  0.74997660  0.94315414    -0.46100
C2917       C  0.99952892  0.75478464  0.93467343    -0.05300
C2918       C  0.97454553  0.75941678  0.92647480    -0.22700
H2919       H  0.89757803  0.76325511  0.91738005     0.19100
H2920       H  0.91024638  0.74177977  0.95433518     0.17900
H2921       H  0.82614450  0.74166793  0.95320163     0.14200
H2922       H  0.98285157  0.76293297  0.91868995     0.14000
H2923       H  0.81729240  0.76006840  0.92173586     0.32200
H2924       H  0.98955113  0.74494879  0.95021917     0.35000
C2925       C  0.36678782  0.73846925  0.93294259     0.20600
C2926       C  0.39897850  0.74048366  0.92633008    -0.39300
C2927       C  0.43614809  0.74118264  0.93096877     0.19500
C2928       C  0.44108770  0.74006236  0.94139644     0.22200
C2929       C  0.40888347  0.73800951  0.94801489    -0.39800
C2930       C  0.37167733  0.73722207  0.94336967     0.21000
N2931       N  0.32832251  0.73867082  0.93047433    -0.33100
C2932       C  0.30855435  0.73769562  0.93941328    -0.10700
C2933       C  0.33467306  0.73653742  0.94760034    -0.29500
N2934       N  0.47956047  0.74073730  0.94386308    -0.46100
C2935       C  0.49916536  0.74206807  0.93490836    -0.05300
C2936       C  0.47302233  0.74252523  0.92672704    -0.22700
H2937       H  0.39536199  0.74157132  0.91817483     0.19100
H2938       H  0.41247687  0.73725958  0.95617779     0.17900
H2939       H  0.32752522  0.73653614  0.95561346     0.14200
H2940       H  0.48013010  0.74316807  0.91871544     0.14000
H2941       H  0.31633238  0.74048964  0.92321093     0.32200
H2942       H  0.49171285  0.73966586  0.95113733     0.35000
C2943       C  0.22950942  0.75683793  0.86712917     0.20600
C2944       C  0.24403872  0.76023944  0.87697434    -0.39300
C2945       C  0.21860219  0.75400585  0.88485961     0.19500
C2946       C  0.18186221  0.74475211  0.88302295     0.22200
C2947       C  0.16710391  0.74167911  0.87318501    -0.39800
C2948       C  0.19225521  0.74825870  0.86530211     0.21000
N2949       N  0.24909467  0.75965868  0.85839688    -0.33100
C2950       C  0.22405561  0.75303566  0.85097369    -0.10700
C2951       C  0.18806396  0.74608624  0.85493945    -0.29500
N2952       N  0.16391091  0.73949609  0.89176303    -0.46100
C2953       C  0.18904690  0.74578955  0.89922057    -0.05300
C2954       C  0.22352164  0.75497896  0.89524490    -0.22700
H2955       H  0.27324072  0.76684073  0.87838032     0.19100
H2956       H  0.13846927  0.73430887  0.87177766     0.17900
H2957       H  0.16354713  0.73872871  0.85087559     0.14200
H2958       H  0.24867804  0.76138012  0.89937642     0.14000
H2959       H  0.27835786  0.76478148  0.85755665     0.32200
H2960       H  0.13592767  0.73240993  0.89261080     0.35000
C2961       C  0.92162518  0.39201953  0.80705986     0.20600
C2962       C  0.91066827  0.37222206  0.80205922    -0.39300
C2963       C  0.92191826  0.35212078  0.80681304     0.19500
C2964       C  0.94250657  0.35163814  0.81588746     0.22200
C2965       C  0.95307264  0.37156606  0.82098972    -0.39800
C2966       C  0.94165691  0.39182051  0.81622591     0.21000
N2967       N  0.91697099  0.41314325  0.80363526    -0.33100
C2968       C  0.93378051  0.42663163  0.81066864    -0.10700
C2969       C  0.94917171  0.41406532  0.81873205    -0.29500
N2970       N  0.95199845  0.33026673  0.81840693    -0.46100
C2971       C  0.93744038  0.31725403  0.81082366    -0.05300
C2972       C  0.91826862  0.33029856  0.80352097    -0.22700
H2973       H  0.89566256  0.37247154  0.79480567     0.19100
H2974       H  0.96992208  0.37133264  0.82796577     0.17900
H2975       H  0.96539747  0.42026722  0.82522240     0.14200
H2976       H  0.90479787  0.32463568  0.79652670     0.14000
H2977       H  0.90386468  0.41810440  0.79680226     0.32200
H2978       H  0.96854381  0.32496261  0.82466272     0.35000
C2979       C  0.82322062  0.60482740  0.81863137     0.20600
C2980       C  0.80749803  0.62266414  0.82422562    -0.39300
C2981       C  0.79978630  0.64238082  0.81876449     0.19500
C2982       C  0.80735369  0.64448340  0.80847770     0.22200
C2983       C  0.82293172  0.62635474  0.80280468    -0.39800
C2984       C  0.83043508  0.60630581  0.80830834     0.21000
N2985       N  0.83249884  0.58438376  0.82221018    -0.33100
C2986       C  0.84530430  0.57220509  0.81417258    -0.10700
C2987       C  0.84464954  0.58533751  0.80529521    -0.29500
N2988       N  0.80101391  0.66595935  0.80539336    -0.46100
C2989       C  0.78990778  0.67737981  0.81386312    -0.05300
C2990       C  0.78816396  0.66304940  0.82225646    -0.22700
H2991       H  0.80234137  0.62140527  0.83232371     0.19100
H2992       H  0.82929655  0.62785664  0.79477688     0.17900
H2993       H  0.85216435  0.58007710  0.79767411     0.14200
H2994       H  0.78259285  0.66762147  0.83008374     0.14000
H2995       H  0.82885232  0.57881301  0.82969180     0.32200
H2996       H  0.80704642  0.67277411  0.79823349     0.35000
C2997       C  0.45859163  0.40063782  0.81430922     0.20600
C2998       C  0.45635214  0.38097886  0.82033107    -0.39300
C2999       C  0.46047728  0.36044507  0.81508056     0.19500
C3000       C  0.46611536  0.35978347  0.80466619     0.22200
C3001       C  0.46892389  0.37926844  0.79872146    -0.39800
C3002       C  0.46502280  0.39959540  0.80393730     0.21000
N3003       N  0.45329978  0.42221618  0.81723661    -0.33100
C3004       C  0.45651863  0.43473298  0.80861543    -0.10700
C3005       C  0.46415288  0.42118382  0.80022614    -0.29500
N3006       N  0.46686334  0.33851360  0.80132313    -0.46100
C3007       C  0.46199531  0.32529476  0.80962243    -0.05300
C3008       C  0.45819921  0.33828352  0.81841206    -0.22700
H3009       H  0.45088805  0.38160019  0.82842398     0.19100
H3010       H  0.47285120  0.37862481  0.79056659     0.17900
H3011       H  0.46714104  0.42638342  0.79237105     0.14200
H3012       H  0.45314337  0.33236064  0.82608778     0.14000
H3013       H  0.44703368  0.42798975  0.82454799     0.32200
H3014       H  0.47010225  0.33329849  0.79379399     0.35000
C3015       C  0.68122893  0.50577551  0.81764914     0.20600
C3016       C  0.64533975  0.50756527  0.82289622    -0.39300
C3017       C  0.61171165  0.51009209  0.81681178     0.19500
C3018       C  0.61391870  0.51092135  0.80632068     0.22200
C3019       C  0.64978411  0.50917004  0.80108214    -0.39800
C3020       C  0.68333179  0.50649503  0.80715694     0.21000
N3021       N  0.71728128  0.50338610  0.82167687    -0.33100
C3022       C  0.74259901  0.50259235  0.81370916    -0.10700
C3023       C  0.72247432  0.50440756  0.80450516    -0.29500
N3024       N  0.57781259  0.51211293  0.80224657    -0.46100
C3025       C  0.55220787  0.51180958  0.81015695    -0.05300
C3026       C  0.57228628  0.51073923  0.81940130    -0.22700
H3027       H  0.64368862  0.50671210  0.83109883     0.19100
H3028       H  0.65136043  0.50954046  0.79287168     0.17900
H3029       H  0.73488985  0.50489479  0.79693482     0.14200
H3030       H  0.55974069  0.50926897  0.82693302     0.14000
H3031       H  0.72430559  0.50289567  0.82939980     0.32200
H3032       H  0.57098478  0.51192623  0.79450987     0.35000
C3033       C  0.18433070  0.49516257  0.80644915     0.20600
C3034       C  0.15157852  0.49756160  0.80004355    -0.39300
C3035       C  0.11481384  0.49830793  0.80492492     0.19500
C3036       C  0.11084156  0.49693599  0.81537734     0.22200
C3037       C  0.14354225  0.49454112  0.82177112    -0.39800
C3038       C  0.18020944  0.49362655  0.81689120     0.21000
N3039       N  0.22265311  0.49522522  0.80378508    -0.33100
C3040       C  0.24291355  0.49390098  0.81263966    -0.10700
C3041       C  0.21734222  0.49257107  0.82092825    -0.29500
N3042       N  0.07264913  0.49729526  0.81810555    -0.46100
C3043       C  0.05214188  0.49860875  0.80929748    -0.05300
C3044       C  0.07748342  0.49949165  0.80094079    -0.22700
H3045       H  0.15446638  0.49876950  0.79187218     0.19100
H3046       H  0.14068914  0.49351471  0.82994868     0.17900
H3047       H  0.22495664  0.49235510  0.82891309     0.14200
H3048       H  0.06956984  0.49999515  0.79297888     0.14000
H3049       H  0.23421877  0.49732228  0.79649012     0.32200
H3050       H  0.06126364  0.49576019  0.82544699     0.35000
C3051       C  0.30268059  0.64569397  0.80865021     0.20600
C3052       C  0.31926289  0.62758098  0.80319922    -0.39300
C3053       C  0.32134182  0.60680587  0.80841310     0.19500
C3054       C  0.30792029  0.60444359  0.81828262     0.22200
C3055       C  0.29109439  0.62237537  0.82367408    -0.39800
C3056       C  0.28905578  0.64301076  0.81848827     0.21000
N3057       N  0.30100603  0.66760134  0.80585318    -0.33100
C3058       C  0.28669485  0.67886510  0.81403421    -0.10700
C3059       C  0.27837378  0.66397941  0.82198001    -0.29500
N3060       N  0.31445994  0.58346659  0.82173816    -0.46100
C3061       C  0.33202575  0.57208779  0.81404810    -0.05300
C3062       C  0.33676155  0.58608199  0.80555341    -0.22700
H3063       H  0.33079211  0.62967721  0.79559075     0.19100
H3064       H  0.28149902  0.62057152  0.83147657     0.17900
H3065       H  0.26881040  0.66818046  0.82958783     0.14200
H3066       H  0.34986324  0.58174489  0.79832492     0.14000
H3067       H  0.31162588  0.67463186  0.79910147     0.32200
H3068       H  0.30720272  0.57723810  0.82893429     0.35000
C3069       C  0.00495551  0.48602460  0.99027992     0.20600
C3070       C  0.99299457  0.47364603  0.99886426    -0.39300
C3071       C  0.98756513  0.48611843  0.00777890     0.19500
C3072       C  0.99378272  0.50918246  0.00806622     0.22200
C3073       C  0.00551962  0.52162961  0.99944485    -0.39800
C3074       C  0.01093221  0.50911678  0.99050759     0.21000
N3075       N  0.00986265  0.47813280  0.98084821    -0.33100
C3076       C  0.01866534  0.49619438  0.97490618    -0.10700
C3077       C  0.02005305  0.51593043  0.98068589    -0.29500
N3078       N  0.98956419  0.51682064  0.01758303    -0.46100
C3079       C  0.98072836  0.49858387  0.02344952    -0.05300
C3080       C  0.97874090  0.47907796  0.01756237    -0.22700
H3081       H  0.98839934  0.45557236  0.99861394     0.19100
H3082       H  0.01024914  0.53969158  0.99970149     0.17900
H3083       H  0.02369429  0.53305983  0.97795239     0.14200
H3084       H  0.97498699  0.46188433  0.02020059     0.14000
H3085       H  0.00490660  0.46156966  0.97845874     0.32200
H3086       H  0.99492487  0.53327856  0.02006061     0.35000
C3087       C  0.95095541  0.39158617  0.93464477     0.20600
C3088       C  0.94242572  0.37173188  0.92925317    -0.39300
C3089       C  0.94540606  0.35152276  0.93484611     0.19500
C3090       C  0.95614133  0.35120386  0.94499401     0.22200
C3091       C  0.96450857  0.37092417  0.95036579    -0.39800
C3092       C  0.96138142  0.39098534  0.94481303     0.21000
N3093       N  0.94828231  0.41309691  0.93131405    -0.33100
C3094       C  0.95651479  0.42601282  0.93952898    -0.10700
C3095       C  0.96505671  0.41280396  0.94801280    -0.29500
N3096       N  0.95605683  0.33009048  0.94867865    -0.46100
C3097       C  0.94515012  0.31673131  0.94084569    -0.05300
C3098       C  0.93819698  0.32945482  0.93207545    -0.22700
H3099       H  0.93345359  0.37201353  0.92136665     0.19100
H3100       H  0.97210509  0.37070660  0.95835152     0.17900
H3101       H  0.97163830  0.41849247  0.95563372     0.14200
H3102       H  0.92879741  0.32339629  0.92471902     0.14000
H3103       H  0.93955009  0.41861411  0.92411466     0.32200
H3104       H  0.96259740  0.32511728  0.95611283     0.35000
C3105       C  0.04515136  0.60706008  0.93050444     0.20600
C3106       C  0.05080119  0.62629495  0.92453662    -0.39300
C3107       C  0.06811676  0.64461581  0.92943348     0.19500
C3108       C  0.07905472  0.64411483  0.93955322     0.22200
C3109       C  0.07381372  0.62455411  0.94555524    -0.39800
C3110       C  0.05632112  0.60599177  0.94060921     0.21000
N3111       N  0.03176368  0.58711617  0.92729239    -0.33100
C3112       C  0.03486959  0.57284309  0.93528925    -0.10700
C3113       C  0.04947739  0.58402902  0.94384114    -0.29500
N3114       N  0.09377228  0.66435453  0.94237122    -0.46100
C3115       C  0.09203836  0.67756275  0.93391069    -0.05300
C3116       C  0.07650691  0.66565313  0.92573108    -0.22700
H3117       H  0.04260043  0.62687761  0.91659356     0.19100
H3118       H  0.08293420  0.62377374  0.95342384     0.17900
H3119       H  0.05726047  0.57667023  0.95110464     0.14200
H3120       H  0.07079700  0.67184092  0.91812391     0.14000
H3121       H  0.02350675  0.58308160  0.91987018     0.32200
H3122       H  0.10350392  0.66900501  0.94959040     0.35000
C3123       C  0.94959983  0.49175651  0.88343810     0.20600
C3124       C  0.94745399  0.47850748  0.87460926    -0.39300
C3125       C  0.94557825  0.49049889  0.86538198     0.19500
C3126       C  0.94549414  0.51387383  0.86503405     0.22200
C3127       C  0.94847837  0.52707054  0.87380791    -0.39800
C3128       C  0.95061736  0.51510542  0.88298319     0.21000
N3129       N  0.95191356  0.48455405  0.89314140    -0.33100
C3130       C  0.95495155  0.50349709  0.89884397    -0.10700
C3131       C  0.95439973  0.52282798  0.89276003    -0.29500
N3132       N  0.93999039  0.52128736  0.85550266    -0.46100
C3133       C  0.93695544  0.50257797  0.84967975    -0.05300
C3134       C  0.94069749  0.48298911  0.85553233    -0.22700
H3135       H  0.94670141  0.46024794  0.87491008     0.19100
H3136       H  0.94854059  0.54534092  0.87352045     0.17900
H3137       H  0.95768924  0.54019151  0.89516112     0.14200
H3138       H  0.93722796  0.46570598  0.85304157     0.14000
H3139       H  0.95341700  0.46784856  0.89567913     0.32200
H3140       H  0.93679563  0.53805508  0.85314898     0.35000
C3141       C  0.49184666  0.48525670  0.00807577     0.20600
C3142       C  0.48160760  0.47332921  0.99926177    -0.39300
C3143       C  0.49895033  0.48109731  0.99018315     0.19500
C3144       C  0.52470260  0.49922152  0.98985643     0.22200
C3145       C  0.53516962  0.51095382  0.99866324    -0.39800
C3146       C  0.51765039  0.50333022  0.00769553     0.21000
N3147       N  0.47867770  0.48184859  0.01765041    -0.33100
C3148       C  0.49631999  0.49802614  0.02332679    -0.10700
C3149       C  0.52076860  0.51158483  0.01735565    -0.29500
N3150       N  0.53438161  0.50453662  0.98020261    -0.46100
C3151       C  0.51429818  0.48978311  0.97433025    -0.05300
C3152       C  0.49232436  0.47479289  0.98030671    -0.22700
H3153       H  0.46078897  0.45949843  0.99939877     0.19100
H3154       H  0.55462243  0.52542076  0.99846643     0.17900
H3155       H  0.53891150  0.52557007  0.01980725     0.14200
H3156       H  0.47194799  0.46198699  0.97772094     0.14000
H3157       H  0.45942000  0.46926658  0.02016246     0.32200
H3158       H  0.55138486  0.51820509  0.97775904     0.35000
C3159       C  0.43098953  0.39840214  0.93289284     0.20600
C3160       C  0.43592529  0.37846838  0.92722031    -0.39300
C3161       C  0.43083485  0.35815388  0.93266341     0.19500
C3162       C  0.42204608  0.35799809  0.94293793     0.22200
C3163       C  0.41676256  0.37771548  0.94852273    -0.39800
C3164       C  0.42137069  0.39777224  0.94310786     0.21000
N3165       N  0.43597947  0.41992435  0.92977703    -0.33100
C3166       C  0.42915337  0.43275711  0.93812423    -0.10700
C3167       C  0.41980581  0.41948680  0.94651594    -0.29500
N3168       N  0.42074149  0.33694209  0.94656751    -0.46100
C3169       C  0.42843472  0.32329914  0.93860339    -0.05300
C3170       C  0.43456108  0.33581334  0.92971581    -0.22700
H3171       H  0.44378006  0.37874609  0.91925412     0.19100
H3172       H  0.41026601  0.37745054  0.95657388     0.17900
H3173       H  0.41431073  0.42497189  0.95422524     0.14200
H3174       H  0.44194543  0.32949325  0.92225128     0.14000
H3175       H  0.44449271  0.42546522  0.92256350     0.32200
H3176       H  0.41519307  0.33213318  0.95407733     0.35000
C3177       C  0.77805171  0.48929157  0.93317866     0.20600
C3178       C  0.74577375  0.48392525  0.92698825    -0.39300
C3179       C  0.70879249  0.48419654  0.93177217     0.19500
C3180       C  0.70412593  0.48945997  0.94193719     0.22200
C3181       C  0.73644711  0.49471707  0.94814070    -0.39800
C3182       C  0.77344995  0.49435494  0.94336570     0.21000
N3183       N  0.81632511  0.48997089  0.93049562    -0.33100
C3184       C  0.83629343  0.49527457  0.93907834    -0.10700
C3185       C  0.81045866  0.49819119  0.94723964    -0.29500
N3186       N  0.66566576  0.49036923  0.94443171    -0.46100
C3187       C  0.64567496  0.48589951  0.93575247    -0.05300
C3188       C  0.67170747  0.48165618  0.92775045    -0.22700
H3189       H  0.74911321  0.48017165  0.91899396     0.19100
H3190       H  0.73301022  0.49906411  0.95607009     0.17900
H3191       H  0.81790409  0.50193452  0.95504868     0.14200
H3192       H  0.66442876  0.47887734  0.91984784     0.14000
H3193       H  0.82821114  0.48622045  0.92337996     0.32200
H3194       H  0.65380878  0.49540293  0.95138686     0.35000
C3195       C  0.27572190  0.50981257  0.94117009     0.20600
C3196       C  0.24037651  0.50730749  0.94658446    -0.39300
C3197       C  0.20632040  0.50514414  0.94067656     0.19500
C3198       C  0.20749394  0.50547543  0.93017271     0.22200
C3199       C  0.24296705  0.50773283  0.92474643    -0.39800
C3200       C  0.27712227  0.50986462  0.93066864     0.21000
N3201       N  0.31205773  0.51118248  0.94506473    -0.33100
C3202       C  0.33715113  0.51174540  0.93704160    -0.10700
C3203       C  0.31638705  0.51113418  0.92788684    -0.29500
N3204       N  0.17096480  0.50407750  0.92633875    -0.46100
C3205       C  0.14630074  0.50292298  0.93444707    -0.05300
C3206       C  0.16734307  0.50331973  0.94353750    -0.22700
H3207       H  0.23949644  0.50705537  0.95480272     0.19100
H3208       H  0.24388278  0.50778331  0.91652883     0.17900
H3209       H  0.32840673  0.51032169  0.92028246     0.14200
H3210       H  0.15562722  0.50329201  0.95118361     0.14000
H3211       H  0.31940584  0.51041725  0.95276495     0.32200
H3212       H  0.16322548  0.50461303  0.91866182     0.35000
C3213       C  0.58906053  0.59826888  0.93023238     0.20600
C3214       C  0.60574612  0.61624055  0.92481185    -0.39300
C3215       C  0.60875890  0.63668423  0.93004261     0.19500
C3216       C  0.59629278  0.63923839  0.93997707     0.22200
C3217       C  0.57961830  0.62104944  0.94546395    -0.39800
C3218       C  0.57648075  0.60041031  0.94017959     0.21000
N3219       N  0.58149838  0.57754209  0.92668207    -0.33100
C3220       C  0.56385844  0.56606254  0.93435359    -0.10700
C3221       C  0.56038080  0.57972724  0.94297189    -0.29500
N3222       N  0.59964783  0.66106034  0.94285797    -0.46100
C3223       C  0.61394230  0.67233392  0.93462174    -0.05300
C3224       C  0.62015204  0.65755257  0.92655690    -0.22700
H3225       H  0.61461654  0.61460638  0.91695010     0.19100
H3226       H  0.56888150  0.62297977  0.95315171     0.17900
H3227       H  0.54737830  0.57526029  0.95020899     0.14200
H3228       H  0.62939091  0.66179818  0.91891462     0.14000
H3229       H  0.58776049  0.57161967  0.91939030     0.32200
H3230       H  0.59030445  0.66807206  0.94971713     0.35000
C3231       C  0.47108692  0.50500537  0.88168383     0.20600
C3232       C  0.48753410  0.50462967  0.87191241    -0.39300
C3233       C  0.46050566  0.50433099  0.86389246     0.19500
C3234       C  0.42023981  0.50501444  0.86553083     0.22200
C3235       C  0.40377512  0.50506301  0.87530255    -0.39800
C3236       C  0.43081059  0.50473641  0.88332764     0.21000
N3237       N  0.49050705  0.50541632  0.89053037    -0.33100
C3238       C  0.46252253  0.50492144  0.89785727    -0.10700
C3239       C  0.42482101  0.50437021  0.89369732    -0.29500
N3240       N  0.40088088  0.50565650  0.85668078    -0.46100
C3241       C  0.42890979  0.50494282  0.84937294    -0.05300
C3242       C  0.46655011  0.50393939  0.85353003    -0.22700
H3243       H  0.51903200  0.50455894  0.87065749     0.19100
H3244       H  0.37227667  0.50531547  0.87655311     0.17900
H3245       H  0.39698104  0.50418901  0.89769973     0.14200
H3246       H  0.49439881  0.50377405  0.84953157     0.14000
H3247       H  0.52101149  0.50574756  0.89154306     0.32200
H3248       H  0.37041598  0.50657734  0.85565058     0.35000
C3249       C  0.73488677  0.73661562  0.74201445     0.20600
C3250       C  0.75070592  0.72563646  0.75055687    -0.39300
C3251       C  0.75743991  0.73926562  0.75904535     0.19500
C3252       C  0.74869671  0.76207247  0.75900094     0.22200
C3253       C  0.73267238  0.77308545  0.75046516    -0.39800
C3254       C  0.72616044  0.75944576  0.74193711     0.21000
N3255       N  0.73024807  0.72784537  0.73273777    -0.33100
C3256       C  0.71911304  0.74514055  0.72660859    -0.10700
C3257       C  0.71538103  0.76513469  0.73211227    -0.29500
N3258       N  0.75646745  0.77108902  0.76810109    -0.46100
C3259       C  0.77002661  0.75395420  0.77403944    -0.05300
C3260       C  0.77143923  0.73380471  0.76861375    -0.22700
H3261       H  0.75800031  0.70784379  0.75051342     0.19100
H3262       H  0.72649952  0.79101932  0.75041144     0.17900
H3263       H  0.71016697  0.78192651  0.72912886     0.14200
H3264       H  0.77887805  0.71718476  0.77146971     0.14000
H3265       H  0.73774092  0.71147606  0.73051506     0.32200
H3266       H  0.75085013  0.78771700  0.77030662     0.35000
C3267       C  0.23350837  0.75899830  0.74151367     0.20600
C3268       C  0.24061566  0.77407630  0.74950592    -0.39300
C3269       C  0.25546232  0.76441240  0.75848472     0.19500
C3270       C  0.26300387  0.74152608  0.75944235     0.22200
C3271       C  0.25573271  0.72645065  0.75148133    -0.39800
C3272       C  0.24071722  0.73609479  0.74253551     0.21000
N3273       N  0.22174639  0.76403920  0.73198673    -0.33100
C3274       C  0.22186303  0.74416041  0.72691194    -0.10700
C3275       C  0.23312646  0.72640780  0.73329869    -0.29500
N3276       N  0.27454231  0.73637815  0.76895112    -0.46100
C3277       C  0.27356595  0.75608061  0.77413833    -0.05300
C3278       C  0.26219214  0.77393244  0.76782993    -0.22700
H3279       H  0.23481537  0.79198802  0.74881317     0.19100
H3280       H  0.26130726  0.70851690  0.75219640     0.17900
H3281       H  0.23825494  0.70897951  0.73121773     0.14200
H3282       H  0.25630287  0.79120916  0.77002315     0.14000
H3283       H  0.21708388  0.78012573  0.72893849     0.32200
H3284       H  0.27913809  0.72023189  0.77194795     0.35000
C3285       C  0.45981360  0.74268816  0.69560647     0.20600
C3286       C  0.49542201  0.73860654  0.70071521    -0.39300
C3287       C  0.52943289  0.74594911  0.69566537     0.19500
C3288       C  0.52768853  0.75667358  0.68631460     0.22200
C3289       C  0.49218647  0.76067471  0.68121306    -0.39800
C3290       C  0.45832767  0.75316834  0.68620013     0.21000
N3291       N  0.42351130  0.73726147  0.69873711    -0.33100
C3292       C  0.39882832  0.74425592  0.69125940    -0.10700
C3293       C  0.41943714  0.75418383  0.68327287    -0.29500
N3294       N  0.56384591  0.76115707  0.68286785    -0.46100
C3295       C  0.58904932  0.75299733  0.68995865    -0.05300
C3296       C  0.56875878  0.74352548  0.69814597    -0.22700
H3297       H  0.49655895  0.73005892  0.70798975     0.19100
H3298       H  0.49110877  0.76873106  0.67382540     0.17900
H3299       H  0.40757099  0.76143609  0.67636340     0.14200
H3300       H  0.58103008  0.73522498  0.70476374     0.14000
H3301       H  0.41599209  0.72930775  0.70556267     0.32200
H3302       H  0.57092795  0.76855208  0.67588656     0.35000
C3303       C  0.02811912  0.74590757  0.68281272     0.20600
C3304       C  0.99262945  0.74556153  0.67730172    -0.39300
C3305       C  0.95823216  0.74908749  0.68300029     0.19500
C3306       C  0.95939686  0.75253777  0.69338312     0.22200
C3307       C  0.99481694  0.75277272  0.69888661    -0.39800
C3308       C  0.02915439  0.74935813  0.69319587     0.21000
N3309       N  0.06476914  0.74393584  0.67911546    -0.33100
C3310       C  0.08942440  0.74621880  0.68717250    -0.10700
C3311       C  0.06824232  0.74949698  0.69612173    -0.29500
N3312       N  0.92289984  0.75474581  0.69712297    -0.46100
C3313       C  0.89799345  0.75262906  0.68912154    -0.05300
C3314       C  0.91899131  0.74919885  0.68012874    -0.22700
H3315       H  0.99190078  0.74284242  0.66917849     0.19100
H3316       H  0.99555779  0.75550392  0.70700887     0.17900
H3317       H  0.07985596  0.75255753  0.70364656     0.14200
H3318       H  0.90715590  0.74604502  0.67263457     0.14000
H3319       H  0.07255364  0.74188207  0.67149553     0.32200
H3320       H  0.91535573  0.75672363  0.70476218     0.35000
C3321       C  0.82357916  0.74839136  0.61778667     0.20600
C3322       C  0.83665803  0.75180598  0.62778569    -0.39300
C3323       C  0.80993763  0.74585067  0.63546073     0.19500
C3324       C  0.77289648  0.73738777  0.63328886     0.22200
C3325       C  0.76007587  0.73363803  0.62329683    -0.39800
C3326       C  0.78691569  0.73940658  0.61562774     0.21000
N3327       N  0.84241375  0.75401252  0.60918566    -0.33100
C3328       C  0.81772035  0.74850973  0.60148636    -0.10700
C3329       C  0.78292713  0.73908515  0.60518687    -0.29500
N3330       N  0.75170717  0.73506200  0.64182649    -0.46100
C3331       C  0.77548236  0.74180800  0.64950571    -0.05300
C3332       C  0.81221524  0.74851667  0.64586578    -0.22700
H3333       H  0.86505486  0.75920709  0.62945315     0.19100
H3334       H  0.73087630  0.72736646  0.62161362     0.17900
H3335       H  0.75765497  0.73355421  0.60085234     0.14200
H3336       H  0.83617710  0.75584008  0.65015545     0.14000
H3337       H  0.87023482  0.76142253  0.60858757     0.32200
H3338       H  0.72232929  0.72997286  0.64237436     0.35000
C3339       C  0.56663518  0.74388866  0.56786744     0.20600
C3340       C  0.60213945  0.74545805  0.57326246    -0.39300
C3341       C  0.63586061  0.74915550  0.56738373     0.19500
C3342       C  0.63430273  0.75087853  0.55691093     0.22200
C3343       C  0.59878014  0.74909185  0.55148553    -0.39800
C3344       C  0.56487503  0.74566112  0.55739248     0.21000
N3345       N  0.53039250  0.74251691  0.57182203    -0.33100
C3346       C  0.50504204  0.74375714  0.56388061    -0.10700
C3347       C  0.52547690  0.74536603  0.55469355    -0.29500
N3348       N  0.67049621  0.75407749  0.55309287    -0.46100
C3349       C  0.69533564  0.75426577  0.56117721    -0.05300
C3350       C  0.67473883  0.75139093  0.57024593    -0.22700
H3351       H  0.60326998  0.74438724  0.58146631     0.19100
H3352       H  0.59755323  0.75077228  0.54330264     0.17900
H3353       H  0.51321971  0.74770027  0.54717496     0.14200
H3354       H  0.68673966  0.75007526  0.57784087     0.14000
H3355       H  0.52332283  0.74213996  0.57954434     0.32200
H3356       H  0.67797969  0.75521001  0.54540956     0.35000
C3357       C  0.13456302  0.76156887  0.55856813     0.20600
C3358       C  0.09915418  0.76227309  0.55307502    -0.39300
C3359       C  0.06515271  0.75689876  0.55859969     0.19500
C3360       C  0.06650662  0.75135187  0.56881368     0.22200
C3361       C  0.10188583  0.75066921  0.57430613    -0.39800
C3362       C  0.13588631  0.75600512  0.56878074     0.21000
N3363       N  0.17101611  0.76446053  0.55489652    -0.33100
C3364       C  0.19584810  0.76050777  0.56277982    -0.10700
C3365       C  0.17498436  0.75546510  0.57162455    -0.29500
N3366       N  0.03016416  0.74781996  0.57243228    -0.46100
C3367       C  0.00535370  0.75125656  0.56450542    -0.05300
C3368       C  0.02610092  0.75673933  0.55569369    -0.22700
H3369       H  0.09821413  0.76652685  0.54507630     0.19100
H3370       H  0.10286461  0.74616046  0.58227662     0.17900
H3371       H  0.18683704  0.75040841  0.57891756     0.14200
H3372       H  0.01414249  0.76130493  0.54834797     0.14000
H3373       H  0.17857545  0.76762384  0.54733105     0.32200
H3374       H  0.02260931  0.74422247  0.57995916     0.35000
C3375       C  0.32400536  0.74486248  0.61849628     0.20600
C3376       C  0.33919015  0.74615986  0.62838036    -0.39300
C3377       C  0.31140034  0.74560168  0.63622202     0.19500
C3378       C  0.27137620  0.74421538  0.63434435     0.22200
C3379       C  0.25615958  0.74232272  0.62443014    -0.39800
C3380       C  0.28414326  0.74260448  0.61655200     0.21000
N3381       N  0.34427271  0.74695892  0.60981487    -0.33100
C3382       C  0.31747812  0.74588289  0.60221320    -0.10700
C3383       C  0.27952423  0.74277727  0.60608355    -0.29500
N3384       N  0.25107288  0.74578511  0.64307928    -0.46100
C3385       C  0.27843081  0.74775420  0.65053780    -0.05300
C3386       C  0.31641507  0.74750475  0.64658166    -0.22700
H3387       H  0.37035399  0.74815715  0.62984187     0.19100
H3388       H  0.22485365  0.74140987  0.62295185     0.17900
H3389       H  0.25220481  0.74215355  0.60186334     0.14200
H3390       H  0.34382792  0.74932681  0.65068852     0.14000
H3391       H  0.37455299  0.74963580  0.60910342     0.32200
H3392       H  0.22049021  0.74558751  0.64393756     0.35000
C3393       C  0.62545023  0.00957797  0.74187303     0.20600
C3394       C  0.61746128  0.02209354  0.75068388    -0.39300
C3395       C  0.61939055  0.01005284  0.75985553     0.19500
C3396       C  0.62895944  0.98734722  0.76016053     0.22200
C3397       C  0.63704140  0.97484735  0.75135161    -0.39800
C3398       C  0.63494218  0.98685877  0.74217822     0.21000
N3399       N  0.62272992  0.01675474  0.73224074    -0.33100
C3400       C  0.63038556  0.99855215  0.72633334    -0.10700
C3401       C  0.63859360  0.97955914  0.73225209    -0.29500
N3402       N  0.63103513  0.98006869  0.76979117    -0.46100
C3403       C  0.62273286  0.99816280  0.77570798    -0.05300
C3404       C  0.61493682  0.01722169  0.76978289    -0.22700
H3405       H  0.61003429  0.03986081  0.75040107     0.19100
H3406       H  0.64426543  0.95705261  0.75162884     0.17900
H3407       H  0.64324961  0.96243259  0.72967019     0.14200
H3408       H  0.60992248  0.03430529  0.77237749     0.14000
H3409       H  0.61395419  0.03280588  0.72981650     0.32200
H3410       H  0.63967508  0.96400078  0.77222260     0.35000
C3411       C  0.67410189  0.89147151  0.68043293     0.20600
C3412       C  0.68815119  0.87334661  0.67471734    -0.39300
C3413       C  0.69446192  0.85331217  0.68007544     0.19500
C3414       C  0.68706993  0.85125418  0.69037183     0.22200
C3415       C  0.67314697  0.86960062  0.69616429    -0.39800
C3416       C  0.66708470  0.88990850  0.69076733     0.21000
N3417       N  0.66640758  0.91225818  0.67698384    -0.33100
C3418       C  0.65474363  0.92444424  0.68512539    -0.10700
C3419       C  0.65464010  0.91108256  0.69392570    -0.29500
N3420       N  0.69297448  0.82977239  0.69343190    -0.46100
C3421       C  0.70403579  0.81828254  0.68497471    -0.05300
C3422       C  0.70563862  0.83252123  0.67655273    -0.22700
H3423       H  0.69339993  0.87469933  0.66662731     0.19100
H3424       H  0.66717170  0.86812081  0.70421383     0.17900
H3425       H  0.64755209  0.91628027  0.70158393     0.14200
H3426       H  0.71164180  0.82795457  0.66874861     0.14000
H3427       H  0.67009810  0.91797950  0.66952818     0.32200
H3428       H  0.68773625  0.82311428  0.70066452     0.35000
C3429       C  0.12627468  0.01191161  0.74184929     0.20600
C3430       C  0.11408214  0.02282098  0.75080680    -0.39300
C3431       C  0.11951587  0.01058175  0.75985592     0.19500
C3432       C  0.13577460  0.98916135  0.75985108     0.22200
C3433       C  0.14786795  0.97828858  0.75091547    -0.39800
C3434       C  0.14254999  0.99049935  0.74190031     0.21000
N3435       N  0.12235892  0.01941463  0.73228774    -0.33100
C3436       C  0.13579657  0.00264549  0.72617400    -0.10700
C3437       C  0.14916144  0.98436469  0.73190858    -0.29500
N3438       N  0.13958030  0.98139302  0.76935235    -0.46100
C3439       C  0.12609016  0.99789748  0.77557188    -0.05300
C3440       C  0.11282065  0.01642415  0.76991877    -0.22700
H3441       H  0.10130625  0.03956827  0.75072066     0.19100
H3442       H  0.16048542  0.96150179  0.75099298     0.17900
H3443       H  0.15960107  0.96824137  0.72915041     0.14200
H3444       H  0.10205966  0.03239562  0.77277037     0.14000
H3445       H  0.10929237  0.03460474  0.73003397     0.32200
H3446       H  0.15237345  0.96605538  0.77149945     0.35000
C3447       C  0.88579152  0.00010244  0.69553897     0.20600
C3448       C  0.84976079  0.99938778  0.70082502    -0.39300
C3449       C  0.81573322  0.99899781  0.69474808     0.19500
C3450       C  0.81779880  0.99924424  0.68424966     0.22200
C3451       C  0.85366833  0.99994320  0.67899447    -0.39800
C3452       C  0.88751014  0.00036809  0.68503861     0.21000
N3453       N  0.92226883  0.00070586  0.69948650    -0.33100
C3454       C  0.94726991  0.00135819  0.69142812    -0.10700
C3455       C  0.92662357  0.00115810  0.68229233    -0.29500
N3456       N  0.78171666  0.99850518  0.68017044    -0.46100
C3457       C  0.75611207  0.99783088  0.68806773    -0.05300
C3458       C  0.77621126  0.99810240  0.69733222    -0.22700
H3459       H  0.84834719  0.99914262  0.70903756     0.19100
H3460       H  0.85509810  0.00011942  0.67078105     0.17900
H3461       H  0.93860159  0.00170811  0.67467617     0.14200
H3462       H  0.76370475  0.99733893  0.70488701     0.14000
H3463       H  0.92967221  0.00080557  0.70718875     0.32200
H3464       H  0.77497083  0.99823313  0.67242919     0.35000
C3465       C  0.38732387  0.98876517  0.68267286     0.20600
C3466       C  0.35466494  0.98565494  0.67627890    -0.39300
C3467       C  0.31761189  0.98778905  0.68096145     0.19500
C3468       C  0.31342872  0.99275509  0.69118034     0.22200
C3469       C  0.34590034  0.99581508  0.69753370    -0.39800
C3470       C  0.38271819  0.99351052  0.69289513     0.21000
N3471       N  0.42585151  0.98777806  0.68019512    -0.33100
C3472       C  0.44549853  0.99169270  0.68899066    -0.10700
C3473       C  0.41949200  0.99536386  0.69700704    -0.29500
N3474       N  0.27529355  0.99407976  0.69380226    -0.46100
C3475       C  0.25490871  0.98993500  0.68518502    -0.05300
C3476       C  0.28024917  0.98586240  0.67702260    -0.22700
H3477       H  0.35781041  0.98186640  0.66828319     0.19100
H3478       H  0.34275383  0.99967825  0.70552348     0.17900
H3479       H  0.42661076  0.99926318  0.70482221     0.14200
H3480       H  0.27235059  0.98207455  0.66924813     0.14000
H3481       H  0.43791860  0.98471432  0.67303210     0.32200
H3482       H  0.26388662  0.99761574  0.70099360     0.35000
C3483       C  0.15751162  0.89055590  0.69227177     0.20600
C3484       C  0.17563216  0.87270189  0.69765948    -0.39300
C3485       C  0.17960722  0.85223928  0.69229252     0.19500
C3486       C  0.16677170  0.85015427  0.68236317     0.22200
C3487       C  0.14858111  0.86770038  0.67708120    -0.39800
C3488       C  0.14438758  0.88780630  0.68240411     0.21000
N3489       N  0.15320894  0.91226855  0.69515479    -0.33100
C3490       C  0.13764871  0.92310997  0.68696613    -0.10700
C3491       C  0.13129213  0.90824883  0.67898040    -0.29500
N3492       N  0.17398293  0.82954066  0.67877729    -0.46100
C3493       C  0.19118139  0.81788185  0.68642578    -0.05300
C3494       C  0.19533993  0.83144794  0.69506308    -0.22700
H3495       H  0.18641692  0.87470555  0.70533751     0.19100
H3496       H  0.13911934  0.86594864  0.66927077     0.17900
H3497       H  0.12154762  0.91227497  0.67135437     0.14200
H3498       H  0.20731571  0.82665000  0.70237546     0.14000
H3499       H  0.16306206  0.91954809  0.70190661     0.32200
H3500       H  0.16646427  0.82357872  0.67157335     0.35000
C3501       C  0.42509649  0.85344325  0.57233141     0.20600
C3502       C  0.43661625  0.87218041  0.57805626    -0.39300
C3503       C  0.44345345  0.89203318  0.57253931     0.19500
C3504       C  0.43900893  0.89330325  0.56210338     0.22200
C3505       C  0.42763274  0.87441342  0.55634385    -0.39800
C3506       C  0.42088894  0.85441312  0.56188111     0.21000
N3507       N  0.41725282  0.83265357  0.57583837    -0.33100
C3508       C  0.40815767  0.82007521  0.56759067    -0.10700
C3509       C  0.40998930  0.83306433  0.55871621    -0.29500
N3510       N  0.44539241  0.91456550  0.55878880    -0.46100
C3511       C  0.45392534  0.92679482  0.56721073    -0.05300
C3512       C  0.45321518  0.91321405  0.57589189    -0.22700
H3513       H  0.43971345  0.87140363  0.58623362     0.19100
H3514       H  0.42400243  0.87526380  0.54818515     0.17900
H3515       H  0.40494735  0.82752003  0.55100082     0.14200
H3516       H  0.45742264  0.91839213  0.58369503     0.14000
H3517       H  0.41881834  0.82724472  0.58339046     0.32200
H3518       H  0.44265462  0.92053457  0.55134849     0.35000
C3519       C  0.52623746  0.00889838  0.61788088     0.20600
C3520       C  0.51215806  0.01199665  0.62779793    -0.39300
C3521       C  0.53912930  0.00726928  0.63556304     0.19500
C3522       C  0.57693167  0.99974771  0.63353680     0.22200
C3523       C  0.59120050  0.99706464  0.62362904    -0.39800
C3524       C  0.56446054  0.00207173  0.61587262     0.21000
N3525       N  0.50541650  0.01013873  0.60926843    -0.33100
C3526       C  0.53061502  0.00424460  0.60175091    -0.10700
C3527       C  0.56792958  0.99940399  0.60551886    -0.29500
N3528       N  0.59589755  0.99479978  0.64216887    -0.46100
C3529       C  0.57026935  0.99940746  0.64976343    -0.05300
C3530       C  0.53457007  0.00746406  0.64598003    -0.22700
H3531       H  0.48209236  0.01698951  0.62934780     0.19100
H3532       H  0.62054889  0.99082009  0.62208458     0.17900
H3533       H  0.59307640  0.99304142  0.60136241     0.14200
H3534       H  0.50852727  0.01206229  0.65023967     0.14000
H3535       H  0.47541847  0.01377069  0.60858092     0.32200
H3536       H  0.62451199  0.98849529  0.64285624     0.35000
C3537       C  0.78701177  0.99398228  0.55937320     0.20600
C3538       C  0.75480618  0.98684562  0.55354067    -0.39300
C3539       C  0.71818398  0.98678898  0.55849974     0.19500
C3540       C  0.71360287  0.99359829  0.56847145     0.22200
C3541       C  0.74584891  0.00082619  0.57431284    -0.39800
C3542       C  0.78263812  0.00056802  0.56938961     0.21000
N3543       N  0.82525012  0.99400884  0.55663651    -0.33100
C3544       C  0.84551847  0.00019304  0.56504593    -0.10700
C3545       C  0.81984202  0.00470984  0.57309756    -0.29500
N3546       N  0.67527291  0.99315908  0.57118869    -0.46100
C3547       C  0.65529808  0.98614991  0.56283820    -0.05300
C3548       C  0.68131656  0.98179584  0.55484540    -0.22700
H3549       H  0.75804522  0.98154358  0.54572537     0.19100
H3550       H  0.74263670  0.00602667  0.58214259     0.17900
H3551       H  0.82756732  0.00912690  0.58081558     0.14200
H3552       H  0.67393401  0.97719153  0.54712702     0.14000
H3553       H  0.83695703  0.98872042  0.54970283     0.32200
H3554       H  0.66327548  0.99874848  0.57804099     0.35000
C3555       C  0.28494673  0.00337465  0.56734106     0.20600
C3556       C  0.24954380  0.00045519  0.57267547    -0.39300
C3557       C  0.21525171  0.00603186  0.56734603     0.19500
C3558       C  0.21630830  0.01414769  0.55748158     0.22200
C3559       C  0.25188572  0.01748892  0.55219610    -0.39800
C3560       C  0.28630064  0.01162501  0.55750142     0.21000
N3561       N  0.32098054  0.99759509  0.57051434    -0.33100
C3562       C  0.34583694  0.00198946  0.56268938    -0.10700
C3563       C  0.32537674  0.01108043  0.55442133    -0.29500
N3564       N  0.17962651  0.01676922  0.55387992    -0.46100
C3565       C  0.15504513  0.01023568  0.56147876    -0.05300
C3566       C  0.17620308  0.00360604  0.57005524    -0.22700
H3567       H  0.24872134  0.99353280  0.58029286     0.19100
H3568       H  0.25258425  0.02340849  0.54441136     0.17900
H3569       H  0.33719299  0.01594900  0.54710072     0.14200
H3570       H  0.16465053  0.99720960  0.57716684     0.14000
H3571       H  0.32811717  0.99063468  0.57758148     0.32200
H3572       H  0.17180767  0.02228871  0.54660968     0.35000
C3573       C  0.94042306  0.89611215  0.56070267     0.20600
C3574       C  0.92318720  0.87807927  0.55534680    -0.39300
C3575       C  0.91720086  0.85809094  0.56096827     0.19500
C3576       C  0.92741546  0.85642161  0.57112052     0.22200
C3577       C  0.94470895  0.87424135  0.57641849    -0.39800
C3578       C  0.95077844  0.89401960  0.57083036     0.21000
N3579       N  0.94611418  0.91751129  0.55746398    -0.33100
C3580       C  0.95953513  0.92897868  0.56568454    -0.10700
C3581       C  0.96335991  0.91473443  0.57406668    -0.29500
N3582       N  0.91944715  0.83581796  0.57477729    -0.46100
C3583       C  0.90455542  0.82391754  0.56690408    -0.05300
C3584       C  0.90234265  0.83727510  0.55814008    -0.22700
H3585       H  0.91461707  0.87958383  0.54745669     0.19100
H3586       H  0.95228201  0.87292367  0.58438591     0.17900
H3587       H  0.97119114  0.91937872  0.58175259     0.14200
H3588       H  0.89270029  0.83219638  0.55065450     0.14000
H3589       H  0.93830349  0.92425762  0.55040557     0.32200
H3590       H  0.92540085  0.82994000  0.58211142     0.35000
C3591       C  0.04444506  0.98748121  0.61679092     0.20600
C3592       C  0.04584950  0.97416224  0.62558856    -0.39300
C3593       C  0.05036959  0.98587852  0.63472643     0.19500
C3594       C  0.05309606  0.00916701  0.63516246     0.22200
C3595       C  0.05233707  0.02255991  0.62628347    -0.39800
C3596       C  0.04803117  0.01075788  0.61706500     0.21000
N3597       N  0.03810748  0.98030733  0.60727917    -0.33100
C3598       C  0.03795537  0.99902863  0.60134784    -0.10700
C3599       C  0.04441267  0.01841251  0.60714831    -0.29500
N3600       N  0.05812936  0.01598222  0.64485729    -0.46100
C3601       C  0.05910824  0.99678163  0.65053812    -0.05300
C3602       C  0.05438036  0.97777358  0.64445331    -0.22700
H3603       H  0.04343127  0.95594684  0.62534001     0.19100
H3604       H  0.05473437  0.04077153  0.62653191     0.17900
H3605       H  0.04391201  0.03577644  0.60456133     0.14200
H3606       H  0.05562603  0.96024758  0.64679738     0.14000
H3607       H  0.03282922  0.96370153  0.60499529     0.32200
H3608       H  0.06303139  0.03245829  0.64736374     0.35000
C3609       C  0.57616419  0.13774793  0.56646673     0.20600
C3610       C  0.56393249  0.11850987  0.57190025    -0.39300
C3611       C  0.56765368  0.09788014  0.56673513     0.19500
C3612       C  0.58260437  0.09663112  0.55696283     0.22200
C3613       C  0.59475875  0.11572467  0.55156805    -0.39800
C3614       C  0.59076425  0.13621589  0.55666738     0.21000
N3615       N  0.57262742  0.15952634  0.56924322    -0.33100
C3616       C  0.58443356  0.17167054  0.56103976    -0.10700
C3617       C  0.59618844  0.15772257  0.55312180    -0.29500
N3618       N  0.58120684  0.07545377  0.55347399    -0.46100
C3619       C  0.56505821  0.06299833  0.56102679    -0.05300
C3620       C  0.55635615  0.07631758  0.56947202    -0.22700
H3621       H  0.55123799  0.11959735  0.57942389     0.19100
H3622       H  0.60517757  0.11478085  0.54380901     0.17900
H3623       H  0.60542178  0.16271404  0.54556877     0.14200
H3624       H  0.54260384  0.07105674  0.57650938     0.14000
H3625       H  0.56057111  0.16571627  0.57598238     0.32200
H3626       H  0.58977660  0.06993303  0.54627517     0.35000
C3627       C  0.05163596  0.15150745  0.56648840     0.20600
C3628       C  0.05895849  0.13157769  0.57201497    -0.39300
C3629       C  0.04531557  0.11156618  0.56750972     0.19500
C3630       C  0.02627947  0.11163267  0.55820241     0.22200
C3631       C  0.01887953  0.13141345  0.55274312    -0.39800
C3632       C  0.03223037  0.15123850  0.55724092     0.21000
N3633       N  0.06318772  0.17261414  0.56876614    -0.33100
C3634       C  0.05106029  0.18558229  0.56084771    -0.10700
C3635       C  0.03151293  0.17285784  0.55357030    -0.29500
N3636       N  0.01913270  0.09060713  0.55508197    -0.46100
C3637       C  0.03346071  0.07686826  0.56241752    -0.05300
C3638       C  0.04975898  0.08922358  0.57039026    -0.22700
H3639       H  0.07495928  0.13158865  0.57912323     0.19100
H3640       H  0.00479349  0.13129228  0.54536730     0.17900
H3641       H  0.01941543  0.17857357  0.54640006     0.14200
H3642       H  0.06516154  0.08275618  0.57698275     0.14000
H3643       H  0.07920845  0.17774951  0.57512356     0.32200
H3644       H  0.00670602  0.08583867  0.54815282     0.35000
C3645       C  0.82669737  0.25968493  0.55847621     0.20600
C3646       C  0.85901160  0.26214023  0.55191082    -0.39300
C3647       C  0.89614318  0.26304099  0.55660423     0.19500
C3648       C  0.90085858  0.26151321  0.56702828     0.22200
C3649       C  0.86853988  0.25919216  0.57359068    -0.39800
C3650       C  0.83142935  0.25839124  0.56890488     0.21000
N3651       N  0.78836447  0.25811764  0.55593217    -0.33100
C3652       C  0.76857415  0.25587780  0.56482751    -0.10700
C3653       C  0.79450236  0.25607032  0.57306669    -0.29500
N3654       N  0.93930182  0.26141858  0.56954398    -0.46100
C3655       C  0.95926810  0.26288696  0.56064779    -0.05300
C3656       C  0.93325144  0.26408112  0.55242880    -0.22700
H3657       H  0.85557070  0.26294445  0.54374452     0.19100
H3658       H  0.87204960  0.25778722  0.58173947     0.17900
H3659       H  0.78724627  0.25479382  0.58105476     0.14200
H3660       H  0.94055174  0.26438686  0.54442515     0.14000
H3661       H  0.77640294  0.25882253  0.54862923     0.32200
H3662       H  0.95118376  0.25944536  0.57681039     0.35000
C3663       C  0.40123480  0.24047742  0.56720107     0.20600
C3664       C  0.36890765  0.24248675  0.57378787    -0.39300
C3665       C  0.33164042  0.24242304  0.56914527     0.19500
C3666       C  0.32675256  0.24043549  0.55874726     0.22200
C3667       C  0.35907764  0.23836204  0.55216799    -0.39800
C3668       C  0.39634543  0.23850531  0.55680378     0.21000
N3669       N  0.43976282  0.24070383  0.56966449    -0.33100
C3670       C  0.45953784  0.23892955  0.56074743    -0.10700
C3671       C  0.43336642  0.23746036  0.55258505    -0.29500
N3672       N  0.28837080  0.24183619  0.55620317    -0.46100
C3673       C  0.26870014  0.24488149  0.56505805    -0.05300
C3674       C  0.29476292  0.24519471  0.57327844    -0.22700
H3675       H  0.37250066  0.24437122  0.58190957     0.19100
H3676       H  0.35552993  0.23712669  0.54401917     0.17900
H3677       H  0.44051357  0.23600405  0.54460119     0.14200
H3678       H  0.28774966  0.24786265  0.58120553     0.14000
H3679       H  0.45181422  0.24213664  0.57693288     0.32200
H3680       H  0.27646818  0.24146124  0.54889108     0.35000
C3681       C  0.51045276  0.23807082  0.74171315     0.20600
C3682       C  0.52451077  0.22691006  0.75045034    -0.39300
C3683       C  0.52762662  0.24016477  0.75923948     0.19500
C3684       C  0.51766977  0.26281427  0.75921246     0.22200
C3685       C  0.50367230  0.27395770  0.75047561    -0.39800
C3686       C  0.50026578  0.26067864  0.74172321     0.21000
N3687       N  0.50609383  0.22939725  0.73238525    -0.33100
C3688       C  0.49317418  0.24652040  0.72635102    -0.10700
C3689       C  0.48878607  0.26634217  0.73193885    -0.29500
N3690       N  0.51979783  0.27123595  0.76863057    -0.46100
C3691       C  0.53049904  0.25389410  0.77482031    -0.05300
C3692       C  0.53639631  0.23421359  0.76919392    -0.22700
H3693       H  0.53187417  0.20912621  0.75043405     0.19100
H3694       H  0.49543261  0.29161420  0.75054350     0.17900
H3695       H  0.48097042  0.28292473  0.72910481     0.14200
H3696       H  0.54228058  0.21742737  0.77209514     0.14000
H3697       H  0.51337466  0.21301064  0.73014103     0.32200
H3698       H  0.51136246  0.28746564  0.77083638     0.35000
C3699       C  0.54746120  0.14069764  0.69508521     0.20600
C3700       C  0.54637295  0.12132229  0.70111057    -0.39300
C3701       C  0.54687954  0.10097655  0.69586384     0.19500
C3702       C  0.54869203  0.09978999  0.68537461     0.22200
C3703       C  0.54939106  0.11939116  0.67927480    -0.39800
C3704       C  0.54858555  0.14000572  0.68457560     0.21000
N3705       N  0.54844808  0.16190972  0.69842208    -0.33100
C3706       C  0.55003148  0.17516438  0.69005754    -0.10700
C3707       C  0.54990000  0.16219962  0.68119435    -0.29500
N3708       N  0.55057319  0.07808770  0.68237186    -0.46100
C3709       C  0.54970384  0.06571494  0.69107396    -0.05300
C3710       C  0.54717673  0.07943158  0.69959128    -0.22700
H3711       H  0.54573038  0.12205647  0.70932502     0.19100
H3712       H  0.55096715  0.11864918  0.67107277     0.17900
H3713       H  0.55155431  0.16813170  0.67342188     0.14200
H3714       H  0.54669757  0.07430986  0.70749385     0.14000
H3715       H  0.54831052  0.16705299  0.70600731     0.32200
H3716       H  0.55265847  0.07210148  0.67493802     0.35000
C3717       C  0.56110877  0.23874872  0.63464790     0.20600
C3718       C  0.56276773  0.22513679  0.62588978    -0.39300
C3719       C  0.56609202  0.23673842  0.61656522     0.19500
C3720       C  0.56804915  0.26006114  0.61609616     0.22200
C3721       C  0.56586172  0.27361176  0.62478491    -0.39800
C3722       C  0.56210881  0.26207237  0.63403744     0.21000
N3723       N  0.55633188  0.23202444  0.64437273    -0.33100
C3724       C  0.55353271  0.25124387  0.64992383    -0.10700
C3725       C  0.55705941  0.27028120  0.64371789    -0.29500
N3726       N  0.57363305  0.26708351  0.60651328    -0.46100
C3727       C  0.57504249  0.24823819  0.60072449    -0.05300
C3728       C  0.57004568  0.22887214  0.60670102    -0.22700
H3729       H  0.56157444  0.20689623  0.62630626     0.19100
H3730       H  0.56695989  0.29185891  0.62436359     0.17900
H3731       H  0.55439512  0.28779895  0.64593944     0.14200
H3732       H  0.57176555  0.21145982  0.60427152     0.14000
H3733       H  0.55264939  0.21548702  0.64698273     0.32200
H3734       H  0.57775046  0.28373443  0.60408952     0.35000
C3735       C  0.98247397  0.25711047  0.74133534     0.20600
C3736       C  0.98500880  0.27140582  0.74978351    -0.39300
C3737       C  0.99803633  0.26123752  0.75883076     0.19500
C3738       C  0.00777832  0.23857993  0.75948206     0.22200
C3739       C  0.00487507  0.22424652  0.75107202    -0.39800
C3740       C  0.99200168  0.23441595  0.74201772     0.21000
N3741       N  0.97578852  0.26315600  0.73160848    -0.33100
C3742       C  0.98197427  0.24423653  0.72606764    -0.10700
C3743       C  0.99128289  0.22594933  0.73234105    -0.29500
N3744       N  0.01827299  0.23294061  0.76902754    -0.46100
C3745       C  0.01461694  0.25214124  0.77450909    -0.05300
C3746       C  0.00234774  0.27011428  0.76838007    -0.22700
H3747       H  0.97816788  0.28923150  0.74930526     0.19100
H3748       H  0.01302570  0.20659373  0.75147330     0.17900
H3749       H  0.00087292  0.20931904  0.73000424     0.14200
H3750       H  0.99497424  0.28708053  0.77075847     0.14000
H3751       H  0.97182664  0.27954898  0.72883399     0.32200
H3752       H  0.02462321  0.21677653  0.77177547     0.35000
C3753       C  0.07398394  0.14622594  0.68608024     0.20600
C3754       C  0.07089933  0.12666004  0.68011615    -0.39300
C3755       C  0.07404815  0.10610715  0.68541837     0.19500
C3756       C  0.07971977  0.10531638  0.69583405     0.22200
C3757       C  0.08328292  0.12473967  0.70173926    -0.39800
C3758       C  0.08017536  0.14512162  0.69646554     0.21000
N3759       N  0.06973567  0.16781723  0.68305792    -0.33100
C3760       C  0.07342187  0.18031549  0.69162100    -0.10700
C3761       C  0.08005267  0.16673683  0.70009664    -0.29500
N3762       N  0.07850018  0.08405796  0.69924115    -0.46100
C3763       C  0.07191009  0.07106965  0.69098622    -0.05300
C3764       C  0.06959331  0.08409745  0.68215493    -0.22700
H3765       H  0.06526787  0.12737839  0.67203078     0.19100
H3766       H  0.08691559  0.12402457  0.70990376     0.17900
H3767       H  0.08298174  0.17195430  0.70793402     0.14200
H3768       H  0.06346025  0.07836658  0.67452088     0.14000
H3769       H  0.06380180  0.17362533  0.67571545     0.32200
H3770       H  0.08097405  0.07874269  0.70679223     0.35000
C3771       C  0.72875612  0.23725643  0.68481816     0.20600
C3772       C  0.76130788  0.23222149  0.67869657    -0.39300
C3773       C  0.79811810  0.23328982  0.68348969     0.19500
C3774       C  0.80246271  0.23882586  0.69363616     0.22200
C3775       C  0.76981674  0.24369892  0.69980443    -0.39800
C3776       C  0.73291943  0.24269699  0.69498122     0.21000
N3777       N  0.69063203  0.23766399  0.68201412    -0.33100
C3778       C  0.67026582  0.24328432  0.69047964    -0.10700
C3779       C  0.69569176  0.24653569  0.69871070    -0.29500
N3780       N  0.84086725  0.24044639  0.69610464    -0.46100
C3781       C  0.86092631  0.23619640  0.68740429    -0.05300
C3782       C  0.83519364  0.23139744  0.67944137    -0.22700
H3783       H  0.75829415  0.22829379  0.67071167     0.19100
H3784       H  0.77293607  0.24838347  0.70770313     0.17900
H3785       H  0.68785672  0.25070815  0.70645132     0.14200
H3786       H  0.84259045  0.22848809  0.67155480     0.14000
H3787       H  0.67913389  0.23371911  0.67488132     0.32200
H3788       H  0.85256085  0.24563907  0.70305385     0.35000
C3789       C  0.23029612  0.26056895  0.69397918     0.20600
C3790       C  0.26593546  0.25887058  0.69937005    -0.39300
C3791       C  0.30028185  0.25883150  0.69344068     0.19500
C3792       C  0.29896316  0.26054817  0.68296374     0.22200
C3793       C  0.26334670  0.26225516  0.67758379    -0.39800
C3794       C  0.22901217  0.26208560  0.68349657     0.21000
N3795       N  0.19375838  0.25944784  0.69780553    -0.33100
C3796       C  0.16885430  0.25994378  0.68973534    -0.10700
C3797       C  0.18979493  0.26176418  0.68064697    -0.29500
N3798       N  0.33537921  0.25970754  0.67904267    -0.46100
C3799       C  0.36031971  0.25731923  0.68702760    -0.05300
C3800       C  0.33948485  0.25675508  0.69618131    -0.22700
H3801       H  0.26677421  0.25718450  0.70755626     0.19100
H3802       H  0.26244183  0.26310920  0.66937392     0.17900
H3803       H  0.17808747  0.26166998  0.67300178     0.14200
H3804       H  0.35135296  0.25511996  0.70377728     0.14000
H3805       H  0.18632414  0.25732021  0.70545064     0.32200
H3806       H  0.34279735  0.26068153  0.67135336     0.35000
C3807       C  0.04662035  0.23872221  0.63368102     0.20600
C3808       C  0.03338618  0.23294756  0.62389957    -0.39300
C3809       C  0.05708867  0.24037327  0.61580662     0.19500
C3810       C  0.09125361  0.25258615  0.61741071     0.22200
C3811       C  0.10488790  0.25791423  0.62716818    -0.39800
C3812       C  0.08131364  0.25048140  0.63523920     0.21000
N3813       N  0.02756840  0.23567379  0.64252552    -0.33100
C3814       C  0.05050165  0.24530048  0.64974531    -0.10700
C3815       C  0.08443869  0.25457993  0.64552278    -0.29500
N3816       N  0.10693847  0.25923754  0.60855470    -0.46100
C3817       C  0.08280449  0.25125916  0.60120098    -0.05300
C3818       C  0.05152438  0.23910002  0.60540469    -0.22700
H3819       H  0.00590978  0.22411851  0.62267151     0.19100
H3820       H  0.13116288  0.26789168  0.62836797     0.17900
H3821       H  0.10688489  0.26433259  0.64935187     0.14200
H3822       H  0.02744462  0.23108192  0.60142316     0.14000
H3823       H  0.99993987  0.22826644  0.64356064     0.32200
H3824       H  0.13234499  0.26894579  0.60757770     0.35000
C3825       C  0.87111325  0.50699237  0.74027599     0.20600
C3826       C  0.85974061  0.51876795  0.74904722    -0.39300
C3827       C  0.86176866  0.50655449  0.75816082     0.19500
C3828       C  0.87426647  0.48432382  0.75843940     0.22200
C3829       C  0.88564003  0.47253724  0.74966227    -0.39800
C3830       C  0.88361573  0.48476256  0.74054073     0.21000
N3831       N  0.86956713  0.51449397  0.73068534    -0.33100
C3832       C  0.88075389  0.49697070  0.72472455    -0.10700
C3833       C  0.89031419  0.47810997  0.73060888    -0.29500
N3834       N  0.87606183  0.47691920  0.76804745    -0.46100
C3835       C  0.86508028  0.49453990  0.77398052    -0.05300
C3836       C  0.85533726  0.51331454  0.76807736    -0.22700
H3837       H  0.85008105  0.53618038  0.74878256     0.19100
H3838       H  0.89541107  0.45514592  0.74993215     0.17900
H3839       H  0.89805225  0.46140105  0.72796734     0.14200
H3840       H  0.84781057  0.53007387  0.77069586     0.14000
H3841       H  0.85928709  0.53027597  0.72829680     0.32200
H3842       H  0.88650964  0.46119117  0.77045992     0.35000
C3843       C  0.80347001  0.64269507  0.69494195     0.20600
C3844       C  0.80647594  0.62298454  0.70073659    -0.39300
C3845       C  0.80860451  0.60291961  0.69524351     0.19500
C3846       C  0.80825776  0.60230318  0.68473565     0.22200
C3847       C  0.80490837  0.62220884  0.67888530    -0.39800
C3848       C  0.80231031  0.64248577  0.68443037     0.21000
N3849       N  0.80039659  0.66373892  0.69849717    -0.33100
C3850       C  0.79678741  0.67730867  0.69026210    -0.10700
C3851       C  0.79782549  0.66471670  0.68129020    -0.29500
N3852       N  0.81013272  0.58075293  0.68144769    -0.46100
C3853       C  0.81112983  0.56782515  0.68999154    -0.05300
C3854       C  0.81025659  0.58112441  0.69868747    -0.22700
H3855       H  0.80664715  0.62324150  0.70895862     0.19100
H3856       H  0.80393225  0.62191653  0.67067104     0.17900
H3857       H  0.79560943  0.67094790  0.67357423     0.14200
H3858       H  0.81024839  0.57552695  0.70652585     0.14000
H3859       H  0.80023770  0.66854349  0.70612728     0.32200
H3860       H  0.80965581  0.57518892  0.67392971     0.35000
C3861       C  0.91169740  0.38734534  0.68934819     0.20600
C3862       C  0.92625920  0.36907878  0.69513215    -0.39300
C3863       C  0.93343731  0.34898603  0.68972441     0.19500
C3864       C  0.92659466  0.34739287  0.67938724     0.22200
C3865       C  0.91208023  0.36547660  0.67365611    -0.39800
C3866       C  0.90497208  0.38538548  0.67902212     0.21000
N3867       N  0.90507608  0.40874979  0.69242154    -0.33100
C3868       C  0.89452221  0.42035750  0.68392374    -0.10700
C3869       C  0.89384066  0.40620923  0.67548328    -0.29500
N3870       N  0.93598669  0.32683960  0.67593282    -0.46100
C3871       C  0.94892780  0.31498026  0.68408202    -0.05300
C3872       C  0.94778620  0.32820585  0.69286938    -0.22700
H3873       H  0.93220667  0.37051282  0.70317925     0.19100
H3874       H  0.90740335  0.36426483  0.66554273     0.17900
H3875       H  0.88839436  0.41088974  0.66765110     0.14200
H3876       H  0.95584924  0.32321666  0.70050693     0.14000
H3877       H  0.90988947  0.41533064  0.69966520     0.32200
H3878       H  0.93323556  0.32114105  0.66846473     0.35000
C3879       C  0.36121576  0.51073253  0.73944470     0.20600
C3880       C  0.34315375  0.51860934  0.74836392    -0.39300
C3881       C  0.35722749  0.50919863  0.75744401     0.19500
C3882       C  0.38684847  0.49314441  0.75750781     0.22200
C3883       C  0.40480315  0.48525542  0.74860629    -0.39800
C3884       C  0.39083109  0.49467678  0.73955304     0.21000
N3885       N  0.35232443  0.51649303  0.72988325    -0.33100
C3886       C  0.37609472  0.50390222  0.72384707    -0.10700
C3887       C  0.40084445  0.49015087  0.72959561    -0.29500
N3888       N  0.39581275  0.48720617  0.76702352    -0.46100
C3889       C  0.37213077  0.49959953  0.77314759    -0.05300
C3890       C  0.34730511  0.51352119  0.76746053    -0.22700
H3891       H  0.31992263  0.53112567  0.74822846     0.19100
H3892       H  0.42793577  0.47267757  0.74873631     0.17900
H3893       H  0.42196991  0.47789141  0.72687455     0.14200
H3894       H  0.32598158  0.52558621  0.77025109     0.14000
H3895       H  0.33028604  0.52772952  0.72759490     0.32200
H3896       H  0.41775337  0.47582281  0.76922508     0.35000
C3897       C  0.28868596  0.59880472  0.68286663     0.20600
C3898       C  0.29671796  0.61914400  0.67771345    -0.39300
C3899       C  0.28566162  0.63897152  0.68282731     0.19500
C3900       C  0.26812926  0.63837203  0.69232736     0.22200
C3901       C  0.25965844  0.61819784  0.69737905    -0.39800
C3902       C  0.27064890  0.59855691  0.69229972     0.21000
N3903       N  0.29921827  0.57774326  0.68013908    -0.33100
C3904       C  0.28791951  0.56425933  0.68797011    -0.10700
C3905       C  0.26967793  0.57665036  0.69560552    -0.29500
N3906       N  0.26387553  0.65917873  0.69605631    -0.46100
C3907       C  0.27863958  0.67329706  0.68892382    -0.05300
C3908       C  0.29208204  0.66144533  0.68045771    -0.22700
H3909       H  0.31182885  0.61953804  0.67047700     0.19100
H3910       H  0.24699155  0.61785773  0.70492538     0.17900
H3911       H  0.25888592  0.57056476  0.70285346     0.14200
H3912       H  0.30673614  0.66821863  0.67381389     0.14000
H3913       H  0.31452729  0.57299442  0.67360453     0.32200
H3914       H  0.25278060  0.66348952  0.70319698     0.35000
C3915       C  0.56825975  0.50364668  0.68090821     0.20600
C3916       C  0.60392690  0.50292565  0.67553032    -0.39300
C3917       C  0.63781400  0.50017917  0.68146554     0.19500
C3918       C  0.63603309  0.49819765  0.69193369     0.22200
C3919       C  0.60039530  0.49893878  0.69730524    -0.39800
C3920       C  0.56654435  0.50181132  0.69138157     0.21000
N3921       N  0.53196140  0.50497460  0.67698919    -0.33100
C3922       C  0.50685399  0.50388221  0.68499266    -0.10700
C3923       C  0.52733840  0.50212397  0.69413610    -0.29500
N3924       N  0.67221380  0.49619606  0.69585836    -0.46100
C3925       C  0.69737769  0.49709279  0.68787284    -0.05300
C3926       C  0.67703558  0.49944309  0.67872513    -0.22700
H3927       H  0.60514364  0.50429998  0.66733573     0.19100
H3928       H  0.59914470  0.49729321  0.70548962     0.17900
H3929       H  0.51521390  0.49990777  0.70167764     0.14200
H3930       H  0.68928127  0.50117857  0.67117170     0.14000
H3931       H  0.52469834  0.50552321  0.66928076     0.32200
H3932       H  0.67937604  0.49499161  0.70355818     0.35000
C3933       C  0.06748526  0.48948441  0.68043189     0.20600
C3934       C  0.10288972  0.48920552  0.67490012    -0.39300
C3935       C  0.13739479  0.48739815  0.68070203     0.19500
C3936       C  0.13635960  0.48587856  0.69118817     0.22200
C3937       C  0.10100715  0.48628656  0.69671154    -0.39800
C3938       C  0.06658317  0.48818750  0.69092438     0.21000
N3939       N  0.03084214  0.49072307  0.67669509    -0.33100
C3940       C  0.00634959  0.49021486  0.68484182    -0.10700
C3941       C  0.02757252  0.48876234  0.69388480    -0.29500
N3942       N  0.17290575  0.48515299  0.69498558    -0.46100
C3943       C  0.19769929  0.48645612  0.68692261    -0.05300
C3944       C  0.17660806  0.48777527  0.67782949    -0.22700
H3945       H  0.10349383  0.49046742  0.66669801     0.19100
H3946       H  0.10041147  0.48534266  0.70492207     0.17900
H3947       H  0.01604475  0.48761846  0.70153436     0.14200
H3948       H  0.18827332  0.48984054  0.67023202     0.14000
H3949       H  0.02296907  0.49146165  0.66902998     0.32200
H3950       H  0.18047666  0.48484503  0.70267564     0.35000
C3951       C  0.46578638  0.35743005  0.68125769     0.20600
C3952       C  0.45723963  0.37594686  0.67508649    -0.39300
C3953       C  0.44179170  0.39470134  0.68002959     0.19500
C3954       C  0.43571454  0.39545566  0.69040946     0.22200
C3955       C  0.44418642  0.37664207  0.69667185    -0.39800
C3956       C  0.45926082  0.35744115  0.69164022     0.21000
N3957       N  0.47689131  0.33705312  0.67804071    -0.33100
C3958       C  0.47677756  0.32343913  0.68630324    -0.10700
C3959       C  0.46657774  0.33559279  0.69503489    -0.29500
N3960       N  0.42078779  0.41576916  0.69309040    -0.46100
C3961       C  0.41725738  0.42760662  0.68425571    -0.05300
C3962       C  0.42996248  0.41485594  0.67602451    -0.22700
H3963       H  0.46126110  0.37553091  0.66693062     0.19100
H3964       H  0.43846268  0.37671573  0.70475777     0.17900
H3965       H  0.46166462  0.32894907  0.70259728     0.14200
H3966       H  0.43135840  0.41990725  0.66811996     0.14000
H3967       H  0.48131536  0.33231728  0.67048578     0.32200
H3968       H  0.41408123  0.42131274  0.70041159     0.35000
C3969       C  0.80203319  0.60671319  0.56477530     0.20600
C3970       C  0.80234104  0.62632929  0.57079316    -0.39300
C3971       C  0.80387674  0.64691758  0.56542053     0.19500
C3972       C  0.80485946  0.64769881  0.55490730     0.22200
C3973       C  0.80502297  0.62827425  0.54894886    -0.39800
C3974       C  0.80360213  0.60790557  0.55427958     0.21000
N3975       N  0.80045214  0.58499074  0.56788518    -0.33100
C3976       C  0.80141429  0.57256107  0.55923952    -0.10700
C3977       C  0.80332321  0.58632749  0.55066157    -0.29500
N3978       N  0.80525249  0.66901309  0.55154140    -0.46100
C3979       C  0.80472841  0.68212764  0.55992480    -0.05300
C3980       C  0.80411522  0.66902999  0.56877487    -0.22700
H3981       H  0.80126702  0.62563228  0.57900349     0.19100
H3982       H  0.80596447  0.62897686  0.54073378     0.17900
H3983       H  0.80433625  0.58118509  0.54278100     0.14200
H3984       H  0.80343764  0.67488149  0.57655147     0.14000
H3985       H  0.79925270  0.57903060  0.57535406     0.32200
H3986       H  0.80601184  0.67431572  0.54396420     0.35000
C3987       C  0.67084403  0.35413168  0.55894800     0.20600
C3988       C  0.68508273  0.37246162  0.55308104    -0.39300
C3989       C  0.69331024  0.39250969  0.55849887     0.19500
C3990       C  0.68816846  0.39372778  0.56890844     0.22200
C3991       C  0.67391753  0.37570577  0.57467589    -0.39800
C3992       C  0.66526601  0.35609256  0.56931121     0.21000
N3993       N  0.66306919  0.33276110  0.55593843    -0.33100
C3994       C  0.65272052  0.32133896  0.56452862    -0.10700
C3995       C  0.65331313  0.33555913  0.57292600    -0.29500
N3996       N  0.69703646  0.41425761  0.57238713    -0.46100
C3997       C  0.70742795  0.42682779  0.56421737    -0.05300
C3998       C  0.70581391  0.41380644  0.55533552    -0.22700
H3999       H  0.68951722  0.37119908  0.54496326     0.19100
H4000       H  0.67000924  0.37685793  0.58281954     0.17900
H4001       H  0.64856319  0.33102271  0.58080663     0.14200
H4002       H  0.71131346  0.41937288  0.54762760     0.14000
H4003       H  0.66711169  0.32605197  0.54868644     0.32200
H4004       H  0.69451474  0.41963883  0.57990986     0.35000
C4005       C  0.80223883  0.50726728  0.61506774     0.20600
C4006       C  0.80358619  0.52010450  0.62403305    -0.39300
C4007       C  0.80726290  0.50767022  0.63310269     0.19500
C4008       C  0.80992269  0.48433296  0.63314454     0.22200
C4009       C  0.80798613  0.47155652  0.62425125    -0.39800
C4010       C  0.80381486  0.48390487  0.61526042     0.21000
N4011       N  0.79757150  0.51480450  0.60548382    -0.33100
C4012       C  0.79555973  0.49600287  0.59965461    -0.10700
C4013       C  0.79921842  0.47648235  0.60548227    -0.29500
N4014       N  0.81545674  0.47648061  0.64257784    -0.46100
C4015       C  0.81590706  0.49482796  0.64867000    -0.05300
C4016       C  0.81061014  0.51467028  0.64307699    -0.22700
H4017       H  0.80189256  0.53835410  0.62395361     0.19100
H4018       H  0.80956212  0.45329859  0.62433149     0.17900
H4019       H  0.79720591  0.45915870  0.60293503     0.14200
H4020       H  0.81149148  0.53184931  0.64584458     0.14000
H4021       H  0.79369344  0.53152244  0.60313165     0.32200
H4022       H  0.81985371  0.45965930  0.64471836     0.35000
C4023       C  0.29823770  0.60766333  0.56414926     0.20600
C4024       C  0.29571905  0.62698710  0.57028236    -0.39300
C4025       C  0.29574581  0.64769657  0.56504470     0.19500
C4026       C  0.29754688  0.64886344  0.55454217     0.22200
C4027       C  0.30048001  0.62969338  0.54846594    -0.39800
C4028       C  0.30099006  0.60917154  0.55367327     0.21000
N4029       N  0.29886932  0.58592867  0.56714789    -0.33100
C4030       C  0.30261013  0.57381885  0.55847335    -0.10700
C4031       C  0.30403984  0.58772446  0.54995713    -0.29500
N4032       N  0.29743220  0.67028964  0.55133971    -0.46100
C4033       C  0.29612497  0.68301534  0.55983317    -0.05300
C4034       C  0.29508419  0.66961078  0.56857329    -0.22700
H4035       H  0.29420706  0.62598741  0.57848320     0.19100
H4036       H  0.30255296  0.63070199  0.54027111     0.17900
H4037       H  0.30635868  0.58274913  0.54207372     0.14200
H4038       H  0.29456223  0.67514512  0.57639869     0.14000
H4039       H  0.29702024  0.57974761  0.57457403     0.32200
H4040       H  0.29946928  0.67591944  0.54382665     0.35000
C4041       C  0.47151962  0.50077991  0.56607269     0.20600
C4042       C  0.50406720  0.50349495  0.57249850    -0.39300
C4043       C  0.54106084  0.50192672  0.56780623     0.19500
C4044       C  0.54549084  0.49804300  0.55750267     0.22200
C4045       C  0.51295073  0.49531582  0.55107666    -0.39800
C4046       C  0.47596183  0.49682959  0.55577488     0.21000
N4047       N  0.43316545  0.50211292  0.56859220    -0.33100
C4048       C  0.41314354  0.49908725  0.55979770    -0.10700
C4049       C  0.43887893  0.49563997  0.55167602    -0.29500
N4050       N  0.58383683  0.49686139  0.55497231    -0.46100
C4051       C  0.60386054  0.49986850  0.56376809    -0.05300
C4052       C  0.57815684  0.50313640  0.57190532    -0.22700
H4053       H  0.50086083  0.50658842  0.58055437     0.19100
H4054       H  0.51615745  0.49227494  0.54301638     0.17900
H4055       H  0.43143347  0.49335169  0.54375153     0.14200
H4056       H  0.58564828  0.50549484  0.57982225     0.14000
H4057       H  0.42143886  0.50560514  0.57575302     0.32200
H4058       H  0.59557516  0.49351318  0.54779812     0.35000
C4059       C  0.04536050  0.49924654  0.55695460     0.20600
C4060       C  0.01252386  0.50041791  0.55054848    -0.39300
C4061       C  0.97581381  0.49922823  0.55539637     0.19500
C4062       C  0.97180368  0.49712536  0.56582562     0.22200
C4063       C  0.00467566  0.49577901  0.57223513    -0.39800
C4064       C  0.04142465  0.49688194  0.56737691     0.21000
N4065       N  0.08356272  0.50012381  0.55424787    -0.33100
C4066       C  0.10397982  0.49812436  0.56303825    -0.10700
C4067       C  0.07869696  0.49607277  0.57135656    -0.29500
N4068       N  0.93353657  0.49713435  0.56853072    -0.46100
C4069       C  0.91322752  0.49920728  0.55971365    -0.05300
C4070       C  0.93864546  0.50045791  0.55139901    -0.22700
H4071       H  0.01530405  0.50228596  0.54239839     0.19100
H4072       H  0.00189682  0.49414644  0.58039514     0.17900
H4073       H  0.08660851  0.49419141  0.57927977     0.14200
H4074       H  0.93092688  0.50258337  0.54347533     0.14000
H4075       H  0.09496702  0.50169559  0.54691005     0.32200
H4076       H  0.92205461  0.49617935  0.57588145     0.35000
C4077       C  0.18665486  0.35633602  0.55929026     0.20600
C4078       C  0.19147320  0.37585801  0.55321238    -0.39300
C4079       C  0.20447859  0.39540018  0.55835741     0.19500
C4080       C  0.21236131  0.39516054  0.56867554     0.22200
C4081       C  0.20739972  0.37592700  0.57467145    -0.39800
C4082       C  0.19411520  0.35676298  0.56961493     0.21000
N4083       N  0.17438678  0.33553551  0.55646923    -0.33100
C4084       C  0.17394011  0.32302656  0.56516329    -0.10700
C4085       C  0.18593644  0.33584722  0.57344205    -0.29500
N4086       N  0.22183256  0.41574638  0.57200713    -0.46100
C4087       C  0.21949003  0.42966933  0.56386903    -0.05300
C4088       C  0.20918318  0.41758641  0.55512457    -0.22700
H4089       H  0.18483693  0.37596498  0.54517335     0.19100
H4090       H  0.21268893  0.37601868  0.58278056     0.17900
H4091       H  0.18899296  0.33043109  0.58126628     0.14200
H4092       H  0.20334835  0.42433133  0.54762409     0.14000
H4093       H  0.16711117  0.33018861  0.54915526     0.32200
H4094       H  0.22730770  0.42025533  0.57954225     0.35000
C4095       C  0.32442049  0.50382130  0.61372212     0.20600
C4096       C  0.34964277  0.49563133  0.62128535    -0.39300
C4097       C  0.33606097  0.49803890  0.63125638     0.19500
C4098       C  0.30039380  0.50815662  0.63357064     0.22200
C4099       C  0.27503625  0.51623729  0.62600745    -0.39800
C4100       C  0.28834362  0.51351879  0.61601487     0.21000
N4101       N  0.32852293  0.50120652  0.60365643    -0.33100
C4102       C  0.29452733  0.50889276  0.59958054    -0.10700
C4103       C  0.26886225  0.51681881  0.60700075    -0.29500
N4104       N  0.29393968  0.50789371  0.64363453    -0.46100
C4105       C  0.32555305  0.49725468  0.64767755    -0.05300
C4106       C  0.35240122  0.49086489  0.64021997    -0.22700
H4107       H  0.37710787  0.48723166  0.61951929     0.19100
H4108       H  0.24643187  0.52330202  0.62775201     0.17900
H4109       H  0.23879596  0.52247025  0.60598492     0.14200
H4110       H  0.38022906  0.48222577  0.64124163     0.01200
H4111       H  0.35135765  0.49290440  0.59988109     0.32200
H4112       H  0.26946881  0.51426122  0.64748813     0.35000
C4113       C  0.98153373  0.99074880  0.51012194     0.20600
C4114       C  0.98450109  0.97605079  0.50181303    -0.39300
C4115       C  0.99882768  0.98566998  0.49275305     0.19500
C4116       C  0.00954748  0.00816353  0.49198028     0.22200
C4117       C  0.00650592  0.02284348  0.50027327    -0.39800
C4118       C  0.99207309  0.01325762  0.50930504     0.21000
N4119       N  0.97112018  0.98556138  0.51974918    -0.33100
C4120       C  0.97552275  0.00494121  0.52508469    -0.10700
C4121       C  0.98801029  0.02254816  0.51876898    -0.29500
N4122       N  0.01958853  0.01351722  0.48235897    -0.46100
C4123       C  0.01454305  0.99435149  0.47692341    -0.05300
C4124       C  0.00219535  0.97660214  0.48320041    -0.22700
H4125       H  0.97609152  0.95845864  0.50233655     0.19100
H4126       H  0.01468890  0.04046990  0.49973686     0.17900
H4127       H  0.99606317  0.03951781  0.52098746     0.14200
H4128       H  0.99357138  0.95977671  0.48090708     0.14000
H4129       H  0.96435845  0.96957424  0.52263307     0.32200
H4130       H  0.02619497  0.02957540  0.47953206     0.35000
C4131       C  0.49019412  0.98528431  0.49176818     0.20600
C4132       C  0.47163178  0.97601166  0.50035293    -0.39300
C4133       C  0.47519772  0.98851412  0.50931323     0.19500
C4134       C  0.49558748  0.00872767  0.50959937     0.22200
C4135       C  0.51410151  0.01800455  0.50101355    -0.39800
C4136       C  0.51071276  0.00544794  0.49207361     0.21000
N4137       N  0.48946858  0.97719930  0.48229605    -0.33100
C4138       C  0.50931597  0.99235022  0.47648028    -0.10700
C4139       C  0.52353650  0.01012920  0.48232730    -0.29500
N4140       N  0.49737740  0.01648969  0.51911195    -0.46100
C4141       C  0.47864652  0.00101751  0.52499947    -0.05300
C4142       C  0.46370681  0.98343338  0.51914014    -0.22700
H4143       H  0.45589646  0.96013539  0.50008343     0.19100
H4144       H  0.53024674  0.03374297  0.50130720     0.17900
H4145       H  0.53848190  0.02519245  0.47969917     0.14200
H4146       H  0.44962227  0.96812180  0.52179434     0.14000
H4147       H  0.47436978  0.96285404  0.47983451     0.32200
H4148       H  0.51290368  0.03070605  0.52154775     0.35000
C4149       C  0.77267051  0.98951421  0.44476659     0.20600
C4150       C  0.73696631  0.98759241  0.45011669    -0.39300
C4151       C  0.70277155  0.98724057  0.44412939     0.19500
C4152       C  0.70440599  0.98853228  0.43364082     0.22200
C4153       C  0.74002994  0.99044760  0.42831286    -0.39800
C4154       C  0.77408384  0.99094374  0.43428197     0.21000
N4155       N  0.80910969  0.99042424  0.44866821    -0.33100
C4156       C  0.83390551  0.99244629  0.44062044    -0.10700
C4157       C  0.81311736  0.99286998  0.43150019    -0.29500
N4158       N  0.66810694  0.98925943  0.42969648    -0.46100
C4159       C  0.64283934  0.98875849  0.43767589    -0.05300
C4160       C  0.66337206  0.98724648  0.44685022    -0.22700
H4161       H  0.73588542  0.98686491  0.45832783     0.19100
H4162       H  0.74106854  0.99186613  0.42011820     0.17900
H4163       H  0.82495633  0.99406968  0.42388394     0.14200
H4164       H  0.65127709  0.98749814  0.45445505     0.14000
H4165       H  0.81665691  0.98944794  0.45635073     0.32200
H4166       H  0.66105185  0.99121027  0.42201945     0.35000
C4167       C  0.20380992  0.00858097  0.43307685     0.20600
C4168       C  0.23931925  0.00990707  0.42762355    -0.39300
C4169       C  0.27369457  0.01064317  0.43351201     0.19500
C4170       C  0.27247582  0.01015217  0.44401495     0.22200
C4171       C  0.23702065  0.00860523  0.44946118    -0.39800
C4172       C  0.20269494  0.00781901  0.44357837     0.21000
N4173       N  0.16725649  0.00798656  0.42924897    -0.33100
C4174       C  0.14256945  0.00678872  0.43733898    -0.10700
C4175       C  0.16360758  0.00652689  0.44644164    -0.29500
N4176       N  0.30896571  0.01015158  0.44786206    -0.46100
C4177       C  0.33387107  0.01034232  0.43980023    -0.05300
C4178       C  0.31293445  0.01080613  0.43067351    -0.22700
H4179       H  0.24009447  0.01017899  0.41940533     0.19100
H4180       H  0.23628139  0.00790950  0.45767572     0.17900
H4181       H  0.15191584  0.00595942  0.45408688     0.14200
H4182       H  0.32471493  0.01014354  0.42304061     0.14000
H4183       H  0.15956347  0.00858516  0.42157034     0.32200
H4184       H  0.31642448  0.00895995  0.45554391     0.35000
C4185       C  0.86939179  0.98886928  0.26027412     0.20600
C4186       C  0.88600499  0.97771220  0.25190618    -0.39300
C4187       C  0.88682981  0.99001317  0.24281079     0.19500
C4188       C  0.87221811  0.01178026  0.24219810     0.22200
C4189       C  0.85560287  0.02295484  0.25057316    -0.39800
C4190       C  0.85476348  0.01063497  0.25967236     0.21000
N4191       N  0.86771607  0.98129291  0.26983948    -0.33100
C4192       C  0.85264248  0.99838012  0.27547603    -0.10700
C4193       C  0.84342095  0.01694029  0.26936709    -0.29500
N4194       N  0.87336345  0.01916735  0.23259419    -0.46100
C4195       C  0.88795677  0.00192039  0.22695640    -0.05300
C4196       C  0.89758198  0.98351132  0.23310277    -0.22700
H4197       H  0.89729173  0.96065425  0.25244472     0.19100
H4198       H  0.84408095  0.03995948  0.25002040     0.17900
H4199       H  0.83329010  0.03339103  0.27179358     0.14200
H4200       H  0.90723968  0.96695310  0.23069702     0.14000
H4201       H  0.87890681  0.96592819  0.27249340     0.32200
H4202       H  0.86182664  0.03443188  0.22992018     0.35000
C4203       C  0.92715459  0.99276320  0.36680659     0.20600
C4204       C  0.92792645  0.97945061  0.37570754    -0.39300
C4205       C  0.93509388  0.99111102  0.38483756     0.19500
C4206       C  0.94156215  0.01417449  0.38498827     0.22200
C4207       C  0.94016865  0.02747918  0.37615799    -0.39800
C4208       C  0.93243418  0.01591937  0.36710811     0.21000
N4209       N  0.91951661  0.98600060  0.35723367    -0.33100
C4210       C  0.91915410  0.00508040  0.35148479    -0.10700
C4211       C  0.92703572  0.02403789  0.35739328    -0.29500
N4212       N  0.95010789  0.02113403  0.39442180    -0.46100
C4213       C  0.94881703  0.00252948  0.40044674    -0.05300
C4214       C  0.93911240  0.98341116  0.39475650    -0.22700
H4215       H  0.92327235  0.96137927  0.37553705     0.19100
H4216       H  0.94469797  0.04556567  0.37632922     0.17900
H4217       H  0.92719280  0.04152050  0.35496486     0.14200
H4218       H  0.93763960  0.96610250  0.39739111     0.14000
H4219       H  0.91261959  0.96966011  0.35486425     0.32200
H4220       H  0.95765456  0.03752688  0.39658876     0.35000
C4221       C  0.37421189  0.98762395  0.24321139     0.20600
C4222       C  0.36848007  0.97400259  0.25185665    -0.39300
C4223       C  0.35696886  0.98537906  0.26076026     0.19500
C4224       C  0.35105185  0.00849464  0.26104188     0.22200
C4225       C  0.35685018  0.02207491  0.25241952    -0.39800
C4226       C  0.36878241  0.01075869  0.24357683     0.21000
N4227       N  0.38314500  0.98093806  0.23367363    -0.33100
C4228       C  0.38306324  0.00003727  0.22793856    -0.10700
C4229       C  0.37472567  0.01888728  0.23392846    -0.29500
N4230       N  0.34365679  0.01547081  0.27059654    -0.46100
C4231       C  0.34579749  0.99673719  0.27651618    -0.05300
C4232       C  0.35352678  0.97765131  0.27059717    -0.22700
H4233       H  0.37322294  0.95593280  0.25171473     0.19100
H4234       H  0.35280451  0.04020004  0.25260143     0.17900
H4235       H  0.37022681  0.03609029  0.23136749     0.14200
H4236       H  0.35988771  0.96074294  0.27328652     0.14000
H4237       H  0.38584217  0.96434810  0.23109630     0.32200
H4238       H  0.34159289  0.03217502  0.27306481     0.35000
C4239       C  0.59171093  0.01622813  0.31716458     0.20600
C4240       C  0.62431991  0.01649451  0.32369676    -0.39300
C4241       C  0.66118929  0.01366206  0.31904682     0.19500
C4242       C  0.66550326  0.01065533  0.30868475     0.22200
C4243       C  0.63286718  0.01048245  0.30213146    -0.39800
C4244       C  0.59595393  0.01347436  0.30678347     0.21000
N4245       N  0.55338852  0.01726608  0.31977299    -0.33100
C4246       C  0.53301361  0.01511884  0.31097770    -0.10700
C4247       C  0.55865268  0.01296670  0.30271746    -0.29500
N4248       N  0.70382496  0.00838059  0.30619427    -0.46100
C4249       C  0.72398181  0.01013673  0.31505644    -0.05300
C4250       C  0.69828264  0.01336464  0.32320868    -0.22700
H4251       H  0.62121288  0.01854297  0.33182373     0.19100
H4252       H  0.63591700  0.00798298  0.29402910     0.17900
H4253       H  0.55097040  0.01002891  0.29485259     0.14200
H4254       H  0.70582349  0.01560508  0.33112946     0.14000
H4255       H  0.54185420  0.01829250  0.32711245     0.32200
H4256       H  0.71553312  0.00623094  0.29892369     0.35000
C4257       C  0.16634838  0.99668227  0.31027168     0.20600
C4258       C  0.13456668  0.99863553  0.30353321    -0.39300
C4259       C  0.09720621  0.00003959  0.30803133     0.19500
C4260       C  0.09173017  0.99956130  0.31844899     0.22200
C4261       C  0.12357353  0.99772351  0.32520386    -0.39800
C4262       C  0.16099929  0.99627481  0.32069576     0.21000
N4263       N  0.20486702  0.99615546  0.30790147    -0.33100
C4264       C  0.22430311  0.99562572  0.31688420    -0.10700
C4265       C  0.19785685  0.99547179  0.32503207    -0.29500
N4266       N  0.05313349  0.00050917  0.32076902    -0.46100
C4267       C  0.03396999  0.00152530  0.31174227    -0.05300
C4268       C  0.06056447  0.00140456  0.30364668    -0.22700
H4269       H  0.13863141  0.99909949  0.29538065     0.19100
H4270       H  0.11954168  0.99752757  0.33335914     0.17900
H4271       H  0.20472697  0.99603931  0.33305602     0.14200
H4272       H  0.05389856  0.00151292  0.29560623     0.14000
H4273       H  0.21716655  0.99729423  0.30064572     0.32200
H4274       H  0.04060372  0.99984986  0.32801007     0.35000
C4275       C  0.40944910  0.01217044  0.36846630     0.20600
C4276       C  0.39450913  0.01329195  0.37839752    -0.39300
C4277       C  0.42202894  0.00969667  0.38616340     0.19500
C4278       C  0.46148279  0.00585938  0.38413091     0.22200
C4279       C  0.47625544  0.00438282  0.37421214    -0.39800
C4280       C  0.44861030  0.00746148  0.36645242     0.21000
N4281       N  0.38932257  0.01473402  0.35978899    -0.33100
C4282       C  0.41560020  0.01116019  0.35220715    -0.10700
C4283       C  0.45296583  0.00653377  0.35604081    -0.29500
N4284       N  0.48196093  0.00391658  0.39277505    -0.46100
C4285       C  0.45534695  0.00604563  0.40035989    -0.05300
C4286       C  0.41750695  0.00956814  0.39658839    -0.22700
H4287       H  0.36375915  0.01663739  0.37995020     0.19100
H4288       H  0.50699703  0.00101421  0.37266083     0.17900
H4289       H  0.47957449  0.00302869  0.35180315     0.14200
H4290       H  0.39075543  0.01237258  0.40087383     0.14000
H4291       H  0.35927652  0.01817561  0.35905838     0.32200
H4292       H  0.51225218  0.00128007  0.39349728     0.35000
C4293       C  0.62433592  0.25878585  0.49153444     0.20600
C4294       C  0.63833634  0.26990890  0.50022650    -0.39300
C4295       C  0.64197622  0.25658729  0.50899587     0.19500
C4296       C  0.63235615  0.23389745  0.50904097     0.22200
C4297       C  0.61842717  0.22273905  0.50032769    -0.39800
C4298       C  0.61472184  0.23609698  0.49155038     0.21000
N4299       N  0.62095649  0.26743012  0.48216053    -0.33100
C4300       C  0.60969909  0.25017772  0.47605183    -0.10700
C4301       C  0.60475912  0.23034554  0.48167806    -0.29500
N4302       N  0.63471975  0.22551246  0.51849503    -0.46100
C4303       C  0.64512960  0.24299710  0.52458939    -0.05300
C4304       C  0.65088482  0.26260864  0.51888458    -0.22700
H4305       H  0.64559299  0.28770356  0.50017200     0.19100
H4306       H  0.61078950  0.20499735  0.50040611     0.17900
H4307       H  0.59850782  0.21362787  0.47880398     0.14200
H4308       H  0.65648062  0.27944444  0.52170944     0.14000
H4309       H  0.62872681  0.28377430  0.47991730     0.32200
H4310       H  0.62642032  0.20928722  0.52078696     0.35000
C4311       C  0.57931700  0.09959883  0.43265500     0.20600
C4312       C  0.59587797  0.11731836  0.42712421    -0.39300
C4313       C  0.59947674  0.13768945  0.43228102     0.19500
C4314       C  0.58758251  0.14044828  0.44225525     0.22200
C4315       C  0.57108458  0.12244282  0.44788482    -0.39800
C4316       C  0.56742450  0.10178290  0.44265915     0.21000
N4317       N  0.57167390  0.07895250  0.42915676    -0.33100
C4318       C  0.55488183  0.06743219  0.43691220    -0.10700
C4319       C  0.55173512  0.08105919  0.44555693    -0.29500
N4320       N  0.59066117  0.16233736  0.44495815    -0.46100
C4321       C  0.60396916  0.17330481  0.43654135    -0.05300
C4322       C  0.61027960  0.15837370  0.42858386    -0.22700
H4323       H  0.60412774  0.11555796  0.41922235     0.19100
H4324       H  0.56081526  0.12453887  0.45560630     0.17900
H4325       H  0.53954649  0.07650605  0.45287740     0.14200
H4326       H  0.61861071  0.16241512  0.42084911     0.14000
H4327       H  0.57777733  0.07303611  0.42185533     0.32200
H4328       H  0.58138771  0.16958357  0.45177463     0.35000
C4329       C  0.11191657  0.24062247  0.49194660     0.20600
C4330       C  0.11041566  0.22664126  0.50055278    -0.39300
C4331       C  0.12573439  0.23595732  0.50951380     0.19500
C4332       C  0.14141790  0.25751288  0.50992287     0.22200
C4333       C  0.14284600  0.27148850  0.50133112    -0.39800
C4334       C  0.12753866  0.26219015  0.49238263     0.21000
N4335       N  0.10260268  0.23508969  0.48232412    -0.33100
C4336       C  0.11320867  0.25315619  0.47661028    -0.10700
C4337       C  0.12807713  0.27048342  0.48266088    -0.29500
N4338       N  0.15147148  0.26297221  0.51949590    -0.46100
C4339       C  0.14139747  0.24487653  0.52524207    -0.05300
C4340       C  0.12586851  0.22760878  0.51924506    -0.22700
H4341       H  0.09830998  0.20974868  0.50029512     0.19100
H4342       H  0.15519916  0.28832363  0.50157257     0.17900
H4343       H  0.14122822  0.28619135  0.48014792     0.14200
H4344       H  0.11308543  0.21183847  0.52180389     0.14000
H4345       H  0.09332484  0.21932556  0.47971866     0.32200
H4346       H  0.16116675  0.27868329  0.52206386     0.35000
C4347       C  0.92578932  0.25719701  0.44409380     0.20600
C4348       C  0.89280334  0.25376729  0.45032693    -0.39300
C4349       C  0.85615160  0.25435086  0.44538427     0.19500
C4350       C  0.85243361  0.25795488  0.43503100     0.22200
C4351       C  0.88535094  0.26147197  0.42881369    -0.39800
C4352       C  0.92193068  0.26099468  0.43375844     0.21000
N4353       N  0.96406997  0.25594944  0.44676597    -0.33100
C4354       C  0.98456122  0.25883816  0.43801540    -0.10700
C4355       C  0.95917517  0.26228074  0.42980858    -0.29500
N4356       N  0.81433349  0.25762888  0.43219682    -0.46100
C4357       C  0.79366508  0.25391798  0.44084899    -0.05300
C4358       C  0.81878764  0.25178053  0.44919990    -0.22700
H4359       H  0.89545678  0.25057900  0.45839797     0.19100
H4360       H  0.88275933  0.26404974  0.42069755     0.17900
H4361       H  0.96693415  0.26398400  0.42186622     0.14200
H4362       H  0.81069139  0.24908750  0.45706405     0.14000
H4363       H  0.97539252  0.25202588  0.45393501     0.32200
H4364       H  0.80310441  0.26027763  0.42490233     0.35000
C4365       C  0.35194405  0.23753344  0.43236362     0.20600
C4366       C  0.38454810  0.24148450  0.42599610    -0.39300
C4367       C  0.42174087  0.24043508  0.43071451     0.19500
C4368       C  0.42610172  0.23600597  0.44098489     0.22200
C4369       C  0.39364836  0.23188982  0.44729951    -0.39800
C4370       C  0.35662955  0.23279064  0.44259162     0.21000
N4371       N  0.31336621  0.23906868  0.42997196    -0.33100
C4372       C  0.29350517  0.23541242  0.43878650    -0.10700
C4373       C  0.31964885  0.23118562  0.44675517    -0.29500
N4374       N  0.46433478  0.23619540  0.44368018    -0.46100
C4375       C  0.48470080  0.24050834  0.43504360    -0.05300
C4376       C  0.45911000  0.24324680  0.42679412    -0.22700
H4377       H  0.38121590  0.24539214  0.41800528     0.19100
H4378       H  0.39692466  0.22859848  0.45534716     0.17900
H4379       H  0.31258483  0.22875054  0.45470209     0.14200
H4380       H  0.46688064  0.24658667  0.41895777     0.14000
H4381       H  0.30143235  0.24363512  0.42294611     0.32200
H4382       H  0.47590545  0.23298982  0.45089294     0.35000
C4383       C  0.05808085  0.14659988  0.44144983     0.20600
C4384       C  0.05245906  0.12732577  0.44760301    -0.39300
C4385       C  0.03781987  0.10804593  0.44261251     0.19500
C4386       C  0.02923688  0.10827406  0.43233440     0.22200
C4387       C  0.03493294  0.12734848  0.42622942    -0.39800
C4388       C  0.04974939  0.14635070  0.43116567     0.21000
N4389       N  0.07201893  0.16701657  0.44421449    -0.33100
C4390       C  0.07247680  0.17963561  0.43557561    -0.10700
C4391       C  0.05894097  0.16720536  0.42731290    -0.29500
N4392       N  0.01924126  0.08767561  0.42912436    -0.46100
C4393       C  0.02216326  0.07380236  0.43728780    -0.05300
C4394       C  0.03296578  0.08595645  0.44595039    -0.22700
H4395       H  0.05990777  0.12717156  0.45559427     0.19100
H4396       H  0.02922586  0.12720210  0.41813952     0.17900
H4397       H  0.05562800  0.17282187  0.41952447     0.14200
H4398       H  0.03994614  0.07924267  0.45339094     0.14000
H4399       H  0.08016564  0.17211766  0.45150184     0.32200
H4400       H  0.01371041  0.08303774  0.42160697     0.35000
C4401       C  0.75197613  0.26485893  0.25949363     0.20600
C4402       C  0.73954060  0.27548577  0.25050594    -0.39300
C4403       C  0.74162622  0.26236318  0.24170713     0.19500
C4404       C  0.75527404  0.24035255  0.24189420     0.22200
C4405       C  0.76770202  0.22967610  0.25090302    -0.39800
C4406       C  0.76549405  0.24281874  0.25973087     0.21000
N4407       N  0.75028322  0.27334160  0.26888447    -0.33100
C4408       C  0.76225059  0.25662562  0.27524024    -0.10700
C4409       C  0.77261790  0.23731439  0.26980436    -0.29500
N4410       N  0.75656833  0.23197263  0.23246115    -0.46100
C4411       C  0.74397768  0.24876139  0.22619884    -0.05300
C4412       C  0.73385788  0.26795102  0.23170369    -0.22700
H4413       H  0.72889844  0.29271605  0.25039129     0.19100
H4414       H  0.77819167  0.21241533  0.25102186     0.17900
H4415       H  0.78106029  0.22100895  0.27283874     0.14200
H4416       H  0.72499320  0.28425044  0.22874409     0.14000
H4417       H  0.73923553  0.28917593  0.27090022     0.32200
H4418       H  0.76748446  0.21616639  0.23035351     0.35000
C4419       C  0.81901922  0.11008582  0.30936164     0.20600
C4420       C  0.79911993  0.12764599  0.30419501    -0.39300
C4421       C  0.79532603  0.14809607  0.30957542     0.19500
C4422       C  0.80996420  0.15043148  0.31932314     0.22200
C4423       C  0.83003991  0.13320696  0.32437249    -0.39800
C4424       C  0.83400477  0.11308933  0.31903631     0.21000
N4425       N  0.82316253  0.08834926  0.30650652    -0.33100
C4426       C  0.84036483  0.07770294  0.31452899    -0.10700
C4427       C  0.84808154  0.09274492  0.32236327    -0.29500
N4428       N  0.80232318  0.17091855  0.32299349    -0.46100
C4429       C  0.78314812  0.18227482  0.31556466    -0.05300
C4430       C  0.77809422  0.16862538  0.30699100    -0.22700
H4431       H  0.78679084  0.12539862  0.29668764     0.19100
H4432       H  0.84086328  0.13515040  0.33205454     0.17900
H4433       H  0.85918903  0.08886332  0.32987857     0.14200
H4434       H  0.76450883  0.17319694  0.29983904     0.14000
H4435       H  0.81195901  0.08088305  0.29993842     0.32200
H4436       H  0.81096562  0.17704866  0.33008481     0.35000
C4437       C  0.68804495  0.23907342  0.36643498     0.20600
C4438       C  0.68848191  0.22544980  0.37511941    -0.39300
C4439       C  0.68563165  0.23684494  0.38435475     0.19500
C4440       C  0.68292045  0.26012266  0.38497289     0.22200
C4441       C  0.68200927  0.27383910  0.37621343    -0.39800
C4442       C  0.68452595  0.26234621  0.36689321     0.21000
N4443       N  0.69275442  0.23219864  0.35684523    -0.33100
C4444       C  0.69214007  0.25109901  0.35105865    -0.10700
C4445       C  0.68657900  0.27033357  0.35701103    -0.29500
N4446       N  0.67925208  0.26658678  0.39473208    -0.46100
C4447       C  0.67894960  0.24717477  0.40024771    -0.05300
C4448       C  0.68299054  0.22836643  0.39403073    -0.22700
H4449       H  0.69091053  0.20724813  0.37470952     0.19100
H4450       H  0.67961974  0.29203758  0.37662308     0.17900
H4451       H  0.68706837  0.28778144  0.35454064     0.14200
H4452       H  0.68196203  0.21076234  0.39625992     0.14000
H4453       H  0.69796264  0.21568546  0.35441630     0.32200
H4454       H  0.67455770  0.28295763  0.39740183     0.35000
C4455       C  0.26361275  0.24399179  0.26005006     0.20600
C4456       C  0.26870298  0.22983422  0.25165161    -0.39300
C4457       C  0.25540494  0.23846601  0.24233072     0.19500
C4458       C  0.23852060  0.25964240  0.24134586     0.22200
C4459       C  0.23348663  0.27385700  0.24975328    -0.39800
C4460       C  0.24651452  0.26513329  0.25911209     0.21000
N4461       N  0.27081788  0.23895959  0.26985794    -0.33100
C4462       C  0.25747558  0.25686794  0.27522059    -0.10700
C4463       C  0.24264913  0.27361806  0.26875998    -0.29500
N4464       N  0.23030016  0.26426079  0.23153335    -0.46100
C4465       C  0.24254079  0.24591343  0.22627296    -0.05300
C4466       C  0.25784514  0.22945366  0.23278218    -0.22700
H4467       H  0.28177002  0.21322247  0.25232991     0.19100
H4468       H  0.22000899  0.29036203  0.24908806     0.17900
H4469       H  0.22810050  0.28916131  0.27090076     0.14200
H4470       H  0.27155933  0.21361678  0.23070830     0.14000
H4471       H  0.28110315  0.22361301  0.27275702     0.32200
H4472       H  0.21970913  0.27946296  0.22855383     0.35000
C4473       C  0.94698058  0.24972946  0.31986905     0.20600
C4474       C  0.98278339  0.24949209  0.32524601    -0.39300
C4475       C  0.01668364  0.24554055  0.31939840     0.19500
C4476       C  0.01474758  0.24200210  0.30902540     0.22200
C4477       C  0.97906419  0.24235033  0.30366668    -0.39800
C4478       C  0.94530585  0.24642253  0.30948122     0.21000
N4479       N  0.91062798  0.25267610  0.32365935    -0.33100
C4480       C  0.88563445  0.25130046  0.31562909    -0.10700
C4481       C  0.90625551  0.24751467  0.30663689    -0.29500
N4482       N  0.05092128  0.23992456  0.30507746    -0.46100
C4483       C  0.07640306  0.24249313  0.31291349    -0.05300
C4484       C  0.05612955  0.24575474  0.32203375    -0.22700
H4485       H  0.98415983  0.25242151  0.33334852     0.19100
H4486       H  0.97776163  0.23988393  0.29553138     0.17900
H4487       H  0.89421257  0.24501112  0.29911386     0.14200
H4488       H  0.06853344  0.24933341  0.32942758     0.14000
H4489       H  0.90320910  0.25493073  0.33129055     0.32200
H4490       H  0.05785716  0.23818910  0.29738823     0.35000
C4491       C  0.44381787  0.25223864  0.30767033     0.20600
C4492       C  0.47626589  0.25943749  0.30193481    -0.39300
C4493       C  0.51318728  0.25684743  0.30658259     0.19500
C4494       C  0.51776672  0.24780811  0.31622183     0.22200
C4495       C  0.48530932  0.24035879  0.32193383    -0.39800
C4496       C  0.44831290  0.24294765  0.31726856     0.21000
N4497       N  0.40545347  0.25384252  0.30514395    -0.33100
C4498       C  0.38536452  0.24549033  0.31321159    -0.10700
C4499       C  0.41115442  0.23839328  0.32086865    -0.29500
N4500       N  0.55606780  0.24761486  0.31894311    -0.46100
C4501       C  0.57587394  0.25649251  0.31091461    -0.05300
C4502       C  0.55004518  0.26237521  0.30309530    -0.22700
H4503       H  0.47299728  0.26681161  0.29444860     0.19100
H4504       H  0.48852083  0.23337197  0.32949669     0.17900
H4505       H  0.40360830  0.23152353  0.32824687     0.14200
H4506       H  0.55733262  0.26974905  0.29579903     0.14000
H4507       H  0.39370171  0.26062769  0.29846802     0.32200
H4508       H  0.56797476  0.24160052  0.32575036     0.35000
C4509       C  0.28781739  0.14678429  0.31100811     0.20600
C4510       C  0.30519982  0.12866256  0.30574287    -0.39300
C4511       C  0.30690820  0.10804195  0.31107410     0.19500
C4512       C  0.29275275  0.10594561  0.32089365     0.22200
C4513       C  0.27558273  0.12391120  0.32612155    -0.39800
C4514       C  0.27354892  0.14427955  0.32079482     0.21000
N4515       N  0.28443921  0.16843193  0.30794561    -0.33100
C4516       C  0.26814806  0.17959469  0.31590578    -0.10700
C4517       C  0.26070773  0.16499465  0.32398966    -0.29500
N4518       N  0.29793509  0.08496289  0.32440263    -0.46100
C4519       C  0.31525959  0.07329580  0.31679107    -0.05300
C4520       C  0.32147458  0.08709053  0.30830424    -0.22700
H4521       H  0.31682196  0.13052707  0.29813173     0.19100
H4522       H  0.26497724  0.12220698  0.33384150     0.17900
H4523       H  0.24970256  0.16925637  0.33146038     0.14200
H4524       H  0.33469268  0.08243645  0.30112991     0.14000
H4525       H  0.29464936  0.17538949  0.30113652     0.32200
H4526       H  0.28967979  0.07888676  0.33155406     0.35000
C4527       C  0.20243380  0.26155267  0.36797754     0.20600
C4528       C  0.21774284  0.26457775  0.37774995    -0.39300
C4529       C  0.19297355  0.25815548  0.38571835     0.19500
C4530       C  0.15589213  0.24919879  0.38405623     0.22200
C4531       C  0.14027006  0.24647926  0.37426499    -0.39800
C4532       C  0.16498589  0.25311115  0.36626703     0.21000
N4533       N  0.22187850  0.26406624  0.35921718    -0.33100
C4534       C  0.19678060  0.25730711  0.35185733    -0.10700
C4535       C  0.16066120  0.25064023  0.35589799    -0.29500
N4536       N  0.13910525  0.24330320  0.39288448    -0.46100
C4537       C  0.16555168  0.24877044  0.40018513    -0.05300
C4538       C  0.19945831  0.25819361  0.39603687    -0.22700
H4539       H  0.24729409  0.27077847  0.37903717     0.19100
H4540       H  0.11158509  0.23907139  0.37296951     0.17900
H4541       H  0.13618666  0.24303488  0.35191003     0.14200
H4542       H  0.22545386  0.26395207  0.40001368     0.14000
H4543       H  0.25132798  0.26877364  0.35832947     0.32200
H4544       H  0.11128465  0.23610903  0.39389159     0.35000
C4545       C  0.87754529  0.76240298  0.49131075     0.20600
C4546       C  0.89050496  0.77388076  0.50004200    -0.39300
C4547       C  0.88639519  0.76211393  0.50925479     0.19500
C4548       C  0.87073269  0.74056748  0.50961181     0.22200
C4549       C  0.85782474  0.72912765  0.50090255    -0.39800
C4550       C  0.86168550  0.74091402  0.49172569     0.21000
N4551       N  0.87989055  0.76948394  0.48165084    -0.33100
C4552       C  0.86559485  0.75243094  0.47583970    -0.10700
C4553       C  0.85352670  0.73433191  0.48187160    -0.29500
N4554       N  0.86767955  0.73345520  0.51922724    -0.46100
C4555       C  0.88093643  0.75054900  0.52514694    -0.05300
C4556       C  0.89345580  0.76874333  0.51919359    -0.22700
H4557       H  0.90266067  0.79075576  0.49968165     0.19100
H4558       H  0.84543466  0.71230842  0.50126958     0.17900
H4559       H  0.84300857  0.71802759  0.47936693     0.14200
H4560       H  0.90342697  0.78509882  0.52177661     0.14000
H4561       H  0.89236084  0.78461803  0.47911893     0.32200
H4562       H  0.85508117  0.71826647  0.52164843     0.35000
C4563       C  0.94405538  0.85021589  0.43547242     0.20600
C4564       C  0.93856555  0.86997798  0.42968293    -0.39300
C4565       C  0.94774229  0.89028211  0.43464795     0.19500
C4566       C  0.96078645  0.89061896  0.44461678     0.22200
C4567       C  0.96625662  0.87103037  0.45035100    -0.39800
C4568       C  0.95757085  0.85091928  0.44538749     0.21000
N4569       N  0.93711171  0.82876118  0.43267172    -0.33100
C4570       C  0.94656708  0.81598718  0.44089432    -0.10700
C4571       C  0.95938721  0.82922893  0.44893912    -0.29500
N4572       N  0.96528130  0.91176051  0.44787356    -0.46100
C4573       C  0.95519796  0.92518462  0.43997418    -0.05300
C4574       C  0.94441801  0.91251414  0.43149652    -0.22700
H4575       H  0.92760378  0.86958868  0.42196745     0.19100
H4576       H  0.97610323  0.87145240  0.45816884     0.17900
H4577       H  0.96831690  0.82372415  0.45644410     0.14200
H4578       H  0.93354728  0.91868969  0.42427619     0.14000
H4579       H  0.92640032  0.82319176  0.42567898     0.32200
H4580       H  0.97361495  0.91679267  0.45516373     0.35000
C4581       C  0.37068701  0.76339720  0.49174954     0.20600
C4582       C  0.38107066  0.77518579  0.50061488    -0.39300
C4583       C  0.38090959  0.76249931  0.50963820     0.19500
C4584       C  0.37096677  0.73984900  0.50974337     0.22200
C4585       C  0.36061872  0.72807866  0.50088612    -0.39800
C4586       C  0.36077559  0.74074756  0.49187272     0.21000
N4587       N  0.37107296  0.77127041  0.48218883    -0.33100
C4588       C  0.36165141  0.75356223  0.47612753    -0.10700
C4589       C  0.35445600  0.73422437  0.48191566    -0.29500
N4590       N  0.37007823  0.73197276  0.51929170    -0.46100
C4591       C  0.37926176  0.74963806  0.52538164    -0.05300
C4592       C  0.38677868  0.76900185  0.51962558    -0.22700
H4593       H  0.38863907  0.79293638  0.50048750     0.19100
H4594       H  0.35288035  0.71035267  0.50102054     0.17900
H4595       H  0.34878917  0.71732533  0.47917729     0.14200
H4596       H  0.39204867  0.78591839  0.52239549     0.14000
H4597       H  0.37962775  0.78743246  0.47987088     0.32200
H4598       H  0.36112429  0.71586459  0.52158464     0.35000
C4599       C  0.43164059  0.89716584  0.43458806     0.20600
C4600       C  0.43393397  0.87744882  0.42864660    -0.39300
C4601       C  0.43302036  0.85692773  0.43410051     0.19500
C4602       C  0.43060137  0.85641416  0.44460186     0.22200
C4603       C  0.42785239  0.87586698  0.45045374    -0.39800
C4604       C  0.42817427  0.89607940  0.44505463     0.21000
N4605       N  0.43341958  0.91888154  0.43147966    -0.33100
C4606       C  0.43061632  0.93129661  0.44011010    -0.10700
C4607       C  0.42707479  0.91760030  0.44864871    -0.29500
N4608       N  0.43122453  0.83527533  0.44810852    -0.46100
C4609       C  0.43355539  0.82188669  0.43984834    -0.05300
C4610       C  0.43462219  0.83468026  0.43089842    -0.22700
H4611       H  0.43653586  0.87803134  0.42045737     0.19100
H4612       H  0.42593641  0.87529915  0.45866013     0.17900
H4613       H  0.42556882  0.92273353  0.45652628     0.14200
H4614       H  0.43661625  0.82857584  0.42317704     0.14000
H4615       H  0.43704200  0.92482543  0.42405994     0.32200
H4616       H  0.42971486  0.83025907  0.45571734     0.35000
C4617       C  0.60546458  0.74948060  0.43363450     0.20600
C4618       C  0.63808851  0.74944899  0.42712052    -0.39300
C4619       C  0.67496429  0.75084997  0.43187698     0.19500
C4620       C  0.67930091  0.75218083  0.44231623     0.22200
C4621       C  0.64665994  0.75221305  0.44883582    -0.39800
C4622       C  0.60976138  0.75078124  0.44407592     0.21000
N4623       N  0.56714785  0.74872968  0.43101852    -0.33100
C4624       C  0.54698293  0.74960344  0.43989070    -0.10700
C4625       C  0.57261910  0.75078784  0.44817000    -0.29500
N4626       N  0.71765901  0.75243593  0.44492371    -0.46100
C4627       C  0.73773875  0.75109327  0.43604640    -0.05300
C4628       C  0.71205052  0.75026819  0.42777782    -0.22700
H4629       H  0.63503900  0.74828780  0.41895541     0.19100
H4630       H  0.64972635  0.75316075  0.45700646     0.17900
H4631       H  0.56502321  0.75213291  0.45613132     0.14200
H4632       H  0.71954216  0.74851323  0.41982658     0.14000
H4633       H  0.55550200  0.74820612  0.42368030     0.32200
H4634       H  0.72934822  0.75264906  0.45226152     0.35000
C4635       C  0.17880668  0.74338373  0.44206531     0.20600
C4636       C  0.14653519  0.73653594  0.44796416    -0.39300
C4637       C  0.10963647  0.73809955  0.44322105     0.19500
C4638       C  0.10507790  0.74591792  0.43336817     0.22200
C4639       C  0.13735745  0.75268982  0.42745631    -0.39800
C4640       C  0.17427881  0.75101521  0.43218142     0.21000
N4641       N  0.21710354  0.74279378  0.44467717    -0.33100
C4642       C  0.23708541  0.74979227  0.43632886    -0.10700
C4643       C  0.21132912  0.75515670  0.42841540    -0.29500
N4644       N  0.06674518  0.74694031  0.43083058    -0.46100
C4645       C  0.04678030  0.73991156  0.43917593    -0.05300
C4646       C  0.07259789  0.73405294  0.44700776    -0.22700
H4647       H  0.14986734  0.73052805  0.45569041     0.19100
H4648       H  0.13399417  0.75882159  0.41975049     0.17900
H4649       H  0.21885193  0.76043085  0.42077742     0.14200
H4650       H  0.06514952  0.72884514  0.45466009     0.14000
H4651       H  0.22898009  0.73684662  0.45149947     0.32200
H4652       H  0.05487832  0.75330527  0.42408260     0.35000
C4653       C  0.98843362  0.75944536  0.25875468     0.20600
C4654       C  0.97012263  0.76742980  0.24986650    -0.39300
C4655       C  0.97871745  0.75551346  0.24096220     0.19500
C4656       C  0.00368677  0.73705677  0.24099234     0.22200
C4657       C  0.02198046  0.72903224  0.24989502    -0.39800
C4658       C  0.01332936  0.74095412  0.25881370     0.21000
N4659       N  0.98378265  0.76743719  0.26817509    -0.33100
C4660       C  0.00538310  0.75391827  0.27438287    -0.10700
C4661       C  0.02466374  0.73720675  0.26880577    -0.29500
N4662       N  0.00867717  0.72934691  0.23152500    -0.46100
C4663       C  0.98715225  0.74303316  0.22535442    -0.05300
C4664       C  0.96759743  0.75949821  0.23098719    -0.22700
H4665       H  0.95070116  0.78192589  0.24989262     0.19100
H4666       H  0.04155740  0.71460500  0.24986056     0.17900
H4667       H  0.04277399  0.72358635  0.27169640     0.14200
H4668       H  0.94970699  0.77325463  0.22813673     0.14000
H4669       H  0.96550509  0.78080159  0.27030950     0.32200
H4670       H  0.02726643  0.71616713  0.22933574     0.35000
C4671       C  0.92036673  0.85599882  0.30603537     0.20600
C4672       C  0.91442867  0.87562031  0.30037141    -0.39300
C4673       C  0.91570064  0.89568395  0.30584079     0.19500
C4674       C  0.92210609  0.89642687  0.31622110     0.22200
C4675       C  0.92831812  0.87659318  0.32194065    -0.39800
C4676       C  0.92725207  0.85628357  0.31640357     0.21000
N4677       N  0.92114705  0.83495333  0.30243447    -0.33100
C4678       C  0.92869649  0.82145480  0.31049960    -0.10700
C4679       C  0.93279156  0.83407877  0.31940015    -0.29500
N4680       N  0.92300416  0.91801607  0.31945248    -0.46100
C4681       C  0.91769318  0.93073402  0.31096295    -0.05300
C4682       C  0.91289073  0.91737152  0.30239906    -0.22700
H4683       H  0.90973064  0.87530145  0.29223953     0.19100
H4684       H  0.93402556  0.87695684  0.33002524     0.17900
H4685       H  0.93909776  0.82788583  0.32697079     0.14200
H4686       H  0.90882261  0.92287306  0.29461653     0.14000
H4687       H  0.91714464  0.83010562  0.29488082     0.32200
H4688       H  0.92837096  0.92372159  0.32682109     0.35000
C4689       C  0.93752253  0.75775792  0.36599248     0.20600
C4690       C  0.93512692  0.77085884  0.37487589    -0.39300
C4691       C  0.93579609  0.75873854  0.38409379     0.19500
C4692       C  0.93820775  0.73539973  0.38437175     0.22200
C4693       C  0.94128765  0.72241448  0.37554896    -0.39800
C4694       C  0.94097461  0.73448346  0.36640129     0.21000
N4695       N  0.93899678  0.76506268  0.35628851    -0.33100
C4696       C  0.94418742  0.74625084  0.35057871    -0.10700
C4697       C  0.94541535  0.72693665  0.35662892    -0.29500
N4698       N  0.93468418  0.72767944  0.39391242    -0.46100
C4699       C  0.93032216  0.74614987  0.39982708    -0.05300
C4700       C  0.93135008  0.76592066  0.39401523    -0.22700
H4701       H  0.93261590  0.78907184  0.37463083     0.19100
H4702       H  0.94348664  0.70418413  0.37578754     0.17900
H4703       H  0.95098445  0.70976637  0.35422339     0.14200
H4704       H  0.92609472  0.78299623  0.39658869     0.14000
H4705       H  0.93920823  0.78181152  0.35377350     0.32200
H4706       H  0.93324355  0.71079782  0.39621450     0.35000
C4707       C  0.49287343  0.76233243  0.25831267     0.20600
C4708       C  0.48030755  0.77299101  0.24933802    -0.39300
C4709       C  0.48284719  0.76000569  0.24049939     0.19500
C4710       C  0.49693174  0.73808468  0.24066609     0.22200
C4711       C  0.50947028  0.72738329  0.24965605    -0.39800
C4712       C  0.50689489  0.74039608  0.25850886     0.21000
N4713       N  0.49199634  0.77091723  0.26769231    -0.33100
C4714       C  0.50523790  0.75441928  0.27399276    -0.10700
C4715       C  0.51518323  0.73505144  0.26854115    -0.29500
N4716       N  0.49856496  0.72979768  0.23122971    -0.46100
C4717       C  0.48575046  0.74651166  0.22496153    -0.05300
C4718       C  0.47522084  0.76563790  0.23047700    -0.22700
H4719       H  0.46952089  0.79019176  0.24925267     0.19100
H4720       H  0.52057406  0.71024784  0.24972832     0.17900
H4721       H  0.52500994  0.71896800  0.27153810     0.14200
H4722       H  0.46596555  0.78187495  0.22752822     0.14000
H4723       H  0.48140323  0.78683321  0.26973474     0.32200
H4724       H  0.50971108  0.71404084  0.22912877     0.35000
C4725       C  0.45524495  0.90327580  0.30842403     0.20600
C4726       C  0.46522009  0.88436972  0.30272271    -0.39300
C4727       C  0.46202034  0.86375886  0.30774367     0.19500
C4728       C  0.44999517  0.86183786  0.31775901     0.22200
C4729       C  0.44005331  0.88101148  0.32355068    -0.39800
C4730       C  0.44308075  0.90190953  0.31844748     0.21000
N4731       N  0.45356209  0.92445846  0.30500060    -0.33100
C4732       C  0.44017162  0.93704342  0.31281296    -0.10700
C4733       C  0.43338297  0.92366290  0.32142139    -0.29500
N4734       N  0.44594896  0.83988680  0.32033474    -0.46100
C4735       C  0.45483316  0.82817200  0.31177837    -0.05300
C4736       C  0.46543715  0.84251777  0.30387344    -0.22700
H4737       H  0.47332246  0.88556688  0.29478444     0.19100
H4738       H  0.42938455  0.87969831  0.33127626     0.17900
H4739       H  0.42174832  0.92896692  0.32868538     0.14200
H4740       H  0.47225808  0.83802206  0.29610344     0.14000
H4741       H  0.46021223  0.92990812  0.29763948     0.32200
H4742       H  0.43530470  0.83339441  0.32719116     0.35000
C4743       C  0.76660038  0.74708589  0.31693149     0.20600
C4744       C  0.73364247  0.75185097  0.32299198    -0.39300
C4745       C  0.69684612  0.74926910  0.31827143     0.19500
C4746       C  0.69293467  0.74246574  0.30827411     0.22200
C4747       C  0.72590840  0.73758604  0.30222090    -0.39800
C4748       C  0.76276813  0.74027067  0.30693208     0.21000
N4749       N  0.80482243  0.74950928  0.31944677    -0.33100
C4750       C  0.82552889  0.74447677  0.31094172    -0.10700
C4751       C  0.80024332  0.73849174  0.30301376    -0.29500
N4752       N  0.65464636  0.74134176  0.30560754    -0.46100
C4753       C  0.63410851  0.74728622  0.31402205    -0.05300
C4754       C  0.65948702  0.75238468  0.32203978    -0.22700
H4755       H  0.73643225  0.75744698  0.33077631     0.19100
H4756       H  0.72312180  0.73244960  0.29437235     0.17900
H4757       H  0.80818058  0.73442499  0.29526955     0.14200
H4758       H  0.65156984  0.75733066  0.32968055     0.14000
H4759       H  0.81600151  0.75539373  0.32633781     0.32200
H4760       H  0.64321065  0.73621128  0.29862220     0.35000
C4761       C  0.19355923  0.76012435  0.30848037     0.20600
C4762       C  0.22592781  0.76303894  0.30200564    -0.39300
C4763       C  0.26295921  0.76269889  0.30672313     0.19500
C4764       C  0.26762138  0.75953302  0.31708062     0.22200
C4765       C  0.23526189  0.75662557  0.32356026    -0.39800
C4766       C  0.19821571  0.75713603  0.31884863     0.21000
N4767       N  0.15521911  0.75956281  0.30588529    -0.33100
C4768       C  0.13540668  0.75633231  0.31470411    -0.10700
C4769       C  0.16128123  0.75471341  0.32292245    -0.29500
N4770       N  0.30600547  0.75941184  0.31962346    -0.46100
C4771       C  0.32580628  0.76253664  0.31079190    -0.05300
C4772       C  0.29992359  0.76475284  0.30261470    -0.22700
H4773       H  0.22257245  0.76531445  0.29389097     0.19100
H4774       H  0.23864639  0.75407050  0.33165830     0.17900
H4775       H  0.15402598  0.75176335  0.33082375     0.14200
H4776       H  0.30724076  0.76718785  0.29468313     0.14000
H4777       H  0.14336440  0.76105388  0.29859367     0.32200
H4778       H  0.31793904  0.75715233  0.32686918     0.35000
C4779       C  0.44035685  0.73745458  0.36592030     0.20600
C4780       C  0.44029926  0.72417267  0.37475112    -0.39300
C4781       C  0.43661202  0.73593188  0.38391367     0.19500
C4782       C  0.43377690  0.75922552  0.38430976     0.22200
C4783       C  0.43324418  0.77254883  0.37541905    -0.39800
C4784       C  0.43641219  0.76070927  0.36619478     0.21000
N4785       N  0.44522996  0.73026688  0.35635150    -0.33100
C4786       C  0.44408758  0.74896292  0.35040086    -0.10700
C4787       C  0.43821734  0.76833638  0.35624509    -0.29500
N4788       N  0.42946734  0.76614713  0.39399614    -0.46100
C4789       C  0.42881578  0.74705083  0.39973559    -0.05300
C4790       C  0.43317094  0.72792922  0.39369671    -0.22700
H4791       H  0.44280436  0.70596040  0.37450086     0.19100
H4792       H  0.43049012  0.79074614  0.37566301     0.17900
H4793       H  0.43787752  0.78568887  0.35364018     0.14200
H4794       H  0.43203264  0.71044593  0.39610501     0.14000
H4795       H  0.45038234  0.71367189  0.35402961     0.32200
H4796       H  0.42464429  0.78265427  0.39647604     0.35000
C4797       C  0.75033996  0.48679783  0.49140626     0.20600
C4798       C  0.73517034  0.47615442  0.50008986    -0.39300
C4799       C  0.73275604  0.48963388  0.50876220     0.19500
C4800       C  0.74455926  0.51200314  0.50872394     0.22200
C4801       C  0.75965174  0.52267556  0.50002846    -0.39800
C4802       C  0.76221032  0.50915241  0.49135949     0.21000
N4803       N  0.75324268  0.47800114  0.48209935    -0.33100
C4804       C  0.76672324  0.49484430  0.47603536    -0.10700
C4805       C  0.77325942  0.51452310  0.48155337    -0.29500
N4806       N  0.74261426  0.52056811  0.51809102    -0.46100
C4807       C  0.73006793  0.50349535  0.52416764    -0.05300
C4808       C  0.72284467  0.48398961  0.51860708    -0.22700
H4809       H  0.72619360  0.45861904  0.50010103     0.19100
H4810       H  0.76899082  0.54014879  0.50004504     0.17900
H4811       H  0.78128949  0.53099585  0.47863229     0.14200
H4812       H  0.71541867  0.46740557  0.52150792     0.14000
H4813       H  0.74397507  0.46194549  0.47986537     0.32200
H4814       H  0.75229055  0.53653641  0.52034106     0.35000
C4815       C  0.67805271  0.35547303  0.43503383     0.20600
C4816       C  0.68901563  0.37486308  0.42954794    -0.39300
C4817       C  0.68465062  0.39540703  0.43472957     0.19500
C4818       C  0.67037006  0.39640280  0.44457409     0.22200
C4819       C  0.65969791  0.37713701  0.45004918    -0.39800
C4820       C  0.66425856  0.35674545  0.44492073     0.21000
N4821       N  0.68170714  0.33379951  0.43215350    -0.33100
C4822       C  0.67088533  0.32149719  0.44038844    -0.10700
C4823       C  0.65956996  0.33517403  0.44843025    -0.29500
N4824       N  0.67016829  0.41764611  0.44797076    -0.46100
C4825       C  0.68453763  0.43041792  0.44027947    -0.05300
C4826       C  0.69390203  0.41720246  0.43185530    -0.22700
H4827       H  0.70091111  0.37398066  0.42193247     0.19100
H4828       H  0.64960215  0.37792458  0.45784065     0.17900
H4829       H  0.65076766  0.32996959  0.45598919     0.14200
H4830       H  0.70653676  0.42271911  0.42471918     0.14000
H4831       H  0.69297455  0.32778235  0.42529280     0.32200
H4832       H  0.66148224  0.42305083  0.45517897     0.35000
C4833       C  0.81780450  0.64239849  0.43034670     0.20600
C4834       C  0.80464124  0.62411672  0.42458465    -0.39300
C4835       C  0.79781774  0.60415281  0.42996895     0.19500
C4836       C  0.80391559  0.60226947  0.44032733     0.22200
C4837       C  0.81701843  0.62076633  0.44614990    -0.39800
C4838       C  0.82360378  0.64101166  0.44073288     0.21000
N4839       N  0.82571378  0.66317615  0.42690444    -0.33100
C4840       C  0.83635106  0.67554213  0.43509702    -0.10700
C4841       C  0.83554991  0.66227546  0.44392215    -0.29500
N4842       N  0.79766588  0.58081710  0.44343045    -0.46100
C4843       C  0.78775853  0.56917138  0.43492549    -0.05300
C4844       C  0.78713329  0.58330098  0.42644790    -0.22700
H4845       H  0.80036362  0.62530598  0.41645163     0.19100
H4846       H  0.82199700  0.61945080  0.45424863     0.17900
H4847       H  0.84189229  0.66756323  0.45160866     0.14200
H4848       H  0.78196908  0.57862424  0.41861759     0.14000
H4849       H  0.82297019  0.66875061  0.41939792     0.32200
H4850       H  0.80183453  0.57430281  0.45073431     0.35000
C4851       C  0.25480371  0.48912306  0.49077630     0.20600
C4852       C  0.23809392  0.47903011  0.49943340    -0.39300
C4853       C  0.23745459  0.49235289  0.50819341     0.19500
C4854       C  0.25258748  0.51403080  0.50827408     0.22200
C4855       C  0.26927946  0.52416178  0.49960261    -0.39800
C4856       C  0.26971933  0.51085194  0.49080579     0.21000
N4857       N  0.25649042  0.48039859  0.48142569    -0.33100
C4858       C  0.27197082  0.49665641  0.47532785    -0.10700
C4859       C  0.28118634  0.51591937  0.48094106    -0.29500
N4860       N  0.25083936  0.52262700  0.51765841    -0.46100
C4861       C  0.23481856  0.50632270  0.52364347    -0.05300
C4862       C  0.22552816  0.48721668  0.51798189    -0.22700
H4863       H  0.22638680  0.46203625  0.49933596     0.19100
H4864       H  0.28096607  0.54115948  0.49970653     0.17900
H4865       H  0.29181531  0.53195495  0.47808673     0.14200
H4866       H  0.21470804  0.47117007  0.52077741     0.14000
H4867       H  0.24535267  0.46473166  0.47920379     0.32200
H4868       H  0.26219144  0.53817515  0.51997802     0.35000
C4869       C  0.19755870  0.34959197  0.43561404     0.20600
C4870       C  0.19144957  0.36929223  0.42980730    -0.39300
C4871       C  0.19964682  0.38978196  0.43475240     0.19500
C4872       C  0.21222686  0.39039934  0.44475021     0.22200
C4873       C  0.21852087  0.37082278  0.45050572    -0.39800
C4874       C  0.21090544  0.35047635  0.44553785     0.21000
N4875       N  0.19076053  0.32806713  0.43285835    -0.33100
C4876       C  0.19995438  0.31531281  0.44110991    -0.10700
C4877       C  0.21285529  0.32871981  0.44912382    -0.29500
N4878       N  0.21629976  0.41172251  0.44790550    -0.46100
C4879       C  0.20680238  0.42498370  0.43987304    -0.05300
C4880       C  0.19638388  0.41195918  0.43146402    -0.22700
H4881       H  0.18074294  0.36871670  0.42207105     0.19100
H4882       H  0.22816920  0.37141322  0.45833684     0.17900
H4883       H  0.22125997  0.32331637  0.45668311     0.14200
H4884       H  0.18646224  0.41788439  0.42411252     0.14000
H4885       H  0.17966282  0.32246276  0.42591199     0.32200
H4886       H  0.22476787  0.41697958  0.45515189     0.35000
C4887       C  0.96085254  0.50093079  0.43397978     0.20600
C4888       C  0.99602928  0.50268332  0.42843375    -0.39300
C4889       C  0.03072887  0.50101180  0.43411657     0.19500
C4890       C  0.03021228  0.49803466  0.44454402     0.22200
C4891       C  0.99495674  0.49627226  0.45010179    -0.39800
C4892       C  0.96015478  0.49772211  0.44439245     0.21000
N4893       N  0.92421100  0.50194476  0.43028453    -0.33100
C4894       C  0.89964311  0.49932281  0.43832910    -0.10700
C4895       C  0.92097017  0.49651079  0.44731763    -0.29500
N4896       N  0.06701113  0.49632718  0.44813968    -0.46100
C4897       C  0.09119863  0.49797827  0.43995966    -0.05300
C4898       C  0.06964334  0.50106155  0.43104865    -0.22700
H4899       H  0.99630249  0.50493492  0.42027144     0.19100
H4900       H  0.99470225  0.49371022  0.45824521     0.17900
H4901       H  0.90948195  0.49431681  0.45492482     0.14200
H4902       H  0.08081961  0.50258438  0.42337692     0.14000
H4903       H  0.91637954  0.50436687  0.42268423     0.32200
H4904       H  0.07512081  0.49361034  0.45570006     0.35000
C4905       C  0.52890439  0.51049861  0.44248339     0.20600
C4906       C  0.49296378  0.50918896  0.44768562    -0.39300
C4907       C  0.45942295  0.50718390  0.44159189     0.19500
C4908       C  0.46149471  0.50674060  0.43109821     0.22200
C4909       C  0.49754813  0.50799583  0.42587081    -0.39800
C4910       C  0.53124620  0.50979905  0.43199209     0.21000
N4911       N  0.56492404  0.51072921  0.44661688    -0.33100
C4912       C  0.59064976  0.50977187  0.43875532    -0.10700
C4913       C  0.57076662  0.50946625  0.42947017    -0.29500
N4914       N  0.42529498  0.50493381  0.42708171    -0.46100
C4915       C  0.40006246  0.50416033  0.43508144    -0.05300
C4916       C  0.42031708  0.50542440  0.44426319    -0.22700
H4917       H  0.49132418  0.50928476  0.45589624     0.19100
H4918       H  0.49927048  0.50718218  0.41767087     0.17900
H4919       H  0.58339161  0.50769117  0.42196554     0.14200
H4920       H  0.40802673  0.50561964  0.45184847     0.14000
H4921       H  0.57150843  0.51016300  0.45436540     0.32200
H4922       H  0.41816484  0.50458606  0.41936446     0.35000
C4923       C  0.29876917  0.60552153  0.44038611     0.20600
C4924       C  0.30936321  0.62413929  0.44649067    -0.39300
C4925       C  0.32047887  0.64391357  0.44118393     0.19500
C4926       C  0.32089523  0.64471016  0.43067792     0.22200
C4927       C  0.30978965  0.62648525  0.42466332    -0.39800
C4928       C  0.29872366  0.60704442  0.42989802     0.21000
N4929       N  0.29063885  0.58414114  0.44333937    -0.33100
C4930       C  0.28577567  0.57229630  0.43459120    -0.10700
C4931       C  0.28995755  0.58621511  0.42612721    -0.29500
N4932       N  0.33240179  0.66493141  0.42731754    -0.46100
C4933       C  0.33905113  0.67766674  0.43564656    -0.05300
C4934       C  0.33212542  0.66513824  0.44452794    -0.22700
H4935       H  0.30967532  0.62317431  0.45469974     0.19100
H4936       H  0.31053845  0.62725007  0.41644749     0.17900
H4937       H  0.28969043  0.58134651  0.41820663     0.14200
H4938       H  0.33374802  0.67098742  0.45229456     0.14000
H4939       H  0.29089759  0.57775855  0.45074423     0.32200
H4940       H  0.33423462  0.66999174  0.41972007     0.35000
C4941       C  0.63903672  0.49292792  0.25874206     0.20600
C4942       C  0.65795825  0.48458778  0.25001720    -0.39300
C4943       C  0.64685009  0.49459709  0.24078950     0.19500
C4944       C  0.61900792  0.51162349  0.24037627     0.22200
C4945       C  0.60005761  0.51997040  0.24910462    -0.39800
C4946       C  0.61122350  0.50997160  0.25834599     0.21000
N4947       N  0.64563431  0.48672222  0.26838178    -0.33100
C4948       C  0.62235201  0.49995902  0.27427827    -0.10700
C4949       C  0.60003332  0.51465441  0.26826874    -0.29500
N4950       N  0.61260177  0.51784651  0.23072775    -0.46100
C4951       C  0.63613607  0.50463935  0.22488171    -0.05300
C4952       C  0.65830506  0.48994933  0.23090025    -0.22700
H4953       H  0.67976345  0.47127754  0.25040343     0.19100
H4954       H  0.57829691  0.53330409  0.24871458     0.17900
H4955       H  0.57980871  0.52758672  0.27080557     0.14200
H4956       H  0.67861389  0.47703881  0.22838439     0.14000
H4957       H  0.66609751  0.47470281  0.27083111     0.32200
H4958       H  0.59218438  0.52985623  0.22823970     0.35000
C4959       C  0.71681938  0.40271312  0.30771786     0.20600
C4960       C  0.72494033  0.38306107  0.30228360    -0.39300
C4961       C  0.71593654  0.36287158  0.30724808     0.19500
C4962       C  0.70082042  0.36206494  0.31701401     0.22200
C4963       C  0.69290963  0.38188846  0.32252298    -0.39800
C4964       C  0.70123836  0.40228764  0.31744107     0.21000
N4965       N  0.71899733  0.42385558  0.30416676    -0.33100
C4966       C  0.70436282  0.43718935  0.31158736    -0.10700
C4967       C  0.69332979  0.42442559  0.32007151    -0.29500
N4968       N  0.69227738  0.34060048  0.31966174    -0.46100
C4969       C  0.70130571  0.32802453  0.31138425    -0.05300
C4970       C  0.71636785  0.34130989  0.30357173    -0.22700
H4971       H  0.73559713  0.38349469  0.29453439     0.19100
H4972       H  0.67957299  0.38148601  0.32998785     0.17900
H4973       H  0.67947109  0.43039145  0.32696267     0.14200
H4974       H  0.72522780  0.33594237  0.29605643     0.14000
H4975       H  0.72826631  0.42879749  0.29692380     0.32200
H4976       H  0.67939503  0.33502338  0.32642367     0.35000
C4977       C  0.55210355  0.60647632  0.31812943     0.20600
C4978       C  0.53297428  0.62354072  0.32348474    -0.39300
C4979       C  0.52551587  0.64330971  0.31805587     0.19500
C4980       C  0.53615328  0.64610844  0.30798213     0.22200
C4981       C  0.55494437  0.62866032  0.30250759    -0.39800
C4982       C  0.56251723  0.60861366  0.30801225     0.21000
N4983       N  0.56331272  0.58651293  0.32186968    -0.33100
C4984       C  0.58068006  0.57527668  0.31413929    -0.10700
C4985       C  0.58085028  0.58850858  0.30528704    -0.29500
N4986       N  0.53031201  0.66775230  0.30507903    -0.46100
C4987       C  0.51663237  0.67857135  0.31347104    -0.05300
C4988       C  0.51258634  0.66369238  0.32159287    -0.22700
H4989       H  0.52584176  0.62186417  0.33146739     0.19100
H4990       H  0.56419441  0.63081132  0.29469779     0.17900
H4991       H  0.59224155  0.58396307  0.29789432     0.14200
H4992       H  0.50507765  0.66777929  0.32936657     0.14000
H4993       H  0.55847595  0.58068285  0.32926598     0.32200
H4994       H  0.53868795  0.67511632  0.29818926     0.35000
C4995       C  0.70226914  0.49751029  0.36520869     0.20600
C4996       C  0.72734301  0.48852847  0.37265276    -0.39300
C4997       C  0.71478914  0.49111452  0.38273415     0.19500
C4998       C  0.67975894  0.50166166  0.38527880     0.22200
C4999       C  0.65481398  0.51084895  0.37782303    -0.39800
C5000       C  0.66756692  0.50842946  0.36772192     0.21000
N5001       N  0.70766685  0.49734695  0.35507543    -0.33100
C5002       C  0.67628879  0.50841860  0.35110211    -0.10700
C5003       C  0.65077016  0.51565007  0.35876148    -0.29500
N5004       N  0.67616353  0.50341556  0.39544513    -0.46100
C5005       C  0.70950958  0.49423463  0.39933028    -0.05300
C5006       C  0.73408144  0.48633206  0.39164567    -0.22700
H5007       H  0.75507218  0.48057395  0.37075305     0.19100
H5008       H  0.62791675  0.51966332  0.37974819     0.17900
H5009       H  0.62315304  0.52456826  0.35786576     0.14200
H5010       H  0.76352805  0.47955766  0.39246523     0.14000
H5011       H  0.73108554  0.49007609  0.35111378     0.32200
H5012       H  0.65415901  0.51197304  0.39942723     0.35000
C5013       C  0.12871840  0.48904751  0.25843836     0.20600
C5014       C  0.14101011  0.47689534  0.24983784    -0.39300
C5015       C  0.14161068  0.48898253  0.24066115     0.19500
C5016       C  0.13079820  0.51147577  0.24018365     0.22200
C5017       C  0.11858214  0.52365254  0.24879493    -0.39800
C5018       C  0.11789997  0.51154011  0.25797404     0.21000
N5019       N  0.12795560  0.48166783  0.26806113    -0.33100
C5020       C  0.11713720  0.49952053  0.27387804    -0.10700
C5021       C  0.10993469  0.51849837  0.26782408    -0.29500
N5022       N  0.13111988  0.51873034  0.23053382    -0.46100
C5023       C  0.14163088  0.50077597  0.22473323    -0.05300
C5024       C  0.14910897  0.48189353  0.23081396    -0.22700
H5025       H  0.14935541  0.45927703  0.25027073     0.19100
H5026       H  0.11010893  0.54125019  0.24835729     0.17900
H5027       H  0.10315565  0.53544329  0.27033390     0.14200
H5028       H  0.15566981  0.46490178  0.22832957     0.14000
H5029       H  0.13681032  0.46571631  0.27059642     0.32200
H5030       H  0.12210465  0.53463678  0.22797869     0.35000
C5031       C  0.17082409  0.39508089  0.30605780     0.20600
C5032       C  0.16335606  0.37549762  0.30051965    -0.39300
C5033       C  0.16777021  0.35527703  0.30585276     0.19500
C5034       C  0.17914860  0.35441699  0.31594277     0.22200
C5035       C  0.18623311  0.37419289  0.32156726    -0.39800
C5036       C  0.18138688  0.39463210  0.31621767     0.21000
N5037       N  0.17014576  0.41622552  0.30249155    -0.33100
C5038       C  0.17989226  0.42958466  0.31040699    -0.10700
C5039       C  0.18690816  0.41682702  0.31917065    -0.29500
N5040       N  0.18368168  0.33281271  0.31897609    -0.46100
C5041       C  0.17498873  0.32009932  0.31070780    -0.05300
C5042       C  0.16464083  0.33355897  0.30244846    -0.22700
H5043       H  0.15548290  0.37596266  0.29255358     0.19100
H5044       H  0.19551442  0.37369772  0.32942820     0.17900
H5045       H  0.19603145  0.42288710  0.32654949     0.14200
H5046       H  0.15747946  0.32817652  0.29481832     0.14000
H5047       H  0.16365597  0.42127793  0.29506451     0.32200
H5048       H  0.19315271  0.32712225  0.32608633     0.35000
C5049       C  0.93105847  0.51206601  0.31816264     0.20600
C5050       C  0.89538981  0.51375641  0.32352686    -0.39300
C5051       C  0.86118328  0.51401496  0.31755787     0.19500
C5052       C  0.86269168  0.51276470  0.30707020     0.22200
C5053       C  0.89828251  0.51103712  0.30172169    -0.39800
C5054       C  0.93240832  0.51071446  0.30767774     0.21000
N5055       N  0.96753528  0.51137863  0.32205470    -0.33100
C5056       C  0.99232813  0.50952282  0.31400707    -0.10700
C5057       C  0.97147541  0.50907346  0.30488998    -0.29500
N5058       N  0.82634183  0.51253293  0.30314303    -0.46100
C5059       C  0.80125934  0.51350996  0.31114593    -0.05300
C5060       C  0.82188694  0.51451239  0.32030469    -0.22700
H5061       H  0.89436039  0.51456774  0.33173450     0.19100
H5062       H  0.89927096  0.50980587  0.29352463     0.17900
H5063       H  0.98328596  0.50798165  0.29727113     0.14200
H5064       H  0.80983651  0.51465927  0.32791563     0.14000
H5065       H  0.97509756  0.51230560  0.32973355     0.32200
H5066       H  0.81907787  0.51094091  0.29546744     0.35000
C5067       C  0.43407746  0.49559078  0.30791793     0.20600
C5068       C  0.40164814  0.49564023  0.30133817    -0.39300
C5069       C  0.36456771  0.49622718  0.30603255     0.19500
C5070       C  0.35991712  0.49666476  0.31647880     0.22200
C5071       C  0.39234472  0.49649037  0.32306764    -0.39800
C5072       C  0.42943598  0.49596690  0.31836757     0.21000
N5073       N  0.47243698  0.49652006  0.30535988    -0.33100
C5074       C  0.49226803  0.49764120  0.31426919    -0.10700
C5075       C  0.46641304  0.49714118  0.32252444    -0.29500
N5076       N  0.32151760  0.49757122  0.31900171    -0.46100
C5077       C  0.30167005  0.49770959  0.31006802    -0.05300
C5078       C  0.32757823  0.49685184  0.30184051    -0.22700
H5079       H  0.40501803  0.49565856  0.29316280     0.19100
H5080       H  0.38899726  0.49716776  0.33123745     0.17900
H5081       H  0.47363691  0.49859474  0.33050436     0.14200
H5082       H  0.32027293  0.49659448  0.29383881     0.14000
H5083       H  0.48421583  0.49736536  0.29803879     0.32200
H5084       H  0.30960182  0.49789788  0.32631552     0.35000
C5085       C  0.06699217  0.64905454  0.31903733     0.20600
C5086       C  0.08347029  0.63131591  0.32456158    -0.39300
C5087       C  0.09213089  0.61195576  0.31902863     0.19500
C5088       C  0.08475014  0.61002251  0.30873398     0.22200
C5089       C  0.06834190  0.62807973  0.30311480    -0.39800
C5090       C  0.05984906  0.64779989  0.30870432     0.21000
N5091       N  0.05634715  0.66909947  0.32273383    -0.33100
C5092       C  0.04250071  0.68118284  0.31476594    -0.10700
C5093       C  0.04412591  0.66850010  0.30581103    -0.29500
N5094       N  0.09256342  0.58878651  0.30558638    -0.46100
C5095       C  0.10464188  0.57743217  0.31403074    -0.05300
C5096       C  0.10516272  0.59152318  0.32245977    -0.22700
H5097       H  0.08849951  0.63237028  0.33266682     0.19100
H5098       H  0.06207489  0.62675838  0.29508020     0.17900
H5099       H  0.03587043  0.67384535  0.29823672     0.14200
H5100       H  0.11118713  0.58691507  0.33027397     0.14000
H5101       H  0.05936804  0.67442377  0.33025316     0.32200
H5102       H  0.08725675  0.58207172  0.29839008     0.35000
C5103       C  0.18558574  0.51469697  0.36604295     0.20600
C5104       C  0.18343830  0.52668165  0.37519909    -0.39300
C5105       C  0.18946698  0.51394557  0.38405808     0.19500
C5106       C  0.19651698  0.49093091  0.38385097     0.22200
C5107       C  0.19914293  0.47897720  0.37464673    -0.39800
C5108       C  0.19362396  0.49180050  0.36574138     0.21000
N5109       N  0.17946608  0.52284653  0.35665343    -0.33100
C5110       C  0.18374532  0.50512917  0.35024963    -0.10700
C5111       C  0.19307955  0.48545308  0.35562374    -0.29500
N5112       N  0.20344845  0.48302692  0.39329514    -0.46100
C5113       C  0.20166205  0.50123920  0.39950229    -0.05300
C5114       C  0.19284538  0.52077864  0.39400560    -0.22700
H5115       H  0.17793157  0.54468033  0.37540067     0.19100
H5116       H  0.20539606  0.46106440  0.37443270     0.17900
H5117       H  0.19646367  0.46858337  0.35261105     0.14200
H5118       H  0.19184483  0.53792394  0.39681967     0.14000
H5119       H  0.17141214  0.53935227  0.35474006     0.32200
H5120       H  0.21214119  0.46667620  0.39527719     0.35000
loop_ 
_geom_bond_atom_site_label_1 
_geom_bond_atom_site_label_2 
_geom_bond_distance 
_geom_bond_site_symmetry_2 
_ccdc_geom_bond_type 
O1           Ni7   1.923       .  S
O1           C22   1.267       .  A
O2          Ni25   1.944       .  S
O2           C11   1.274       .  A
O3           Ni7   1.889       .  S
O3          Ni25   1.915       .  S
O3          Ni19   1.920       .  S
O3           H26   0.966       .  S
C4           O21   1.283       .  A
C4           O13   1.277       .  A
C4         C5077   1.474       .  S
O5          Ni24   1.906       .  S
O5           C11   1.261       .  A
O6          Ni24   1.891       .  S
O6            C8   1.263       .  A
Ni7          O10   1.917       .  S
Ni7          O12   1.889       .  S
C8           O18   1.269       .  A
C8         C5038   1.465       .  S
O9          Ni25   1.933       .  S
O9           C15   1.283       .  A
O10          C15   1.277       .  A
C11        C5020   1.476       .  S
O12          C14   1.266       .  A
O13         Ni24   1.912       .  S
C14          O20   1.274       .  A
C14        C5095   1.472       .  S
C15        C5056   1.473   1_455  S
H16          O17   0.967       .  S
O17         Ni25   1.924       .  S
O17         Ni19   1.908       .  S
O17         Ni24   1.893       .  S
O18         Ni19   1.929       .  S
Ni19         O23   1.927       .  S
Ni19         O21   1.938       .  S
O20         Ni25   1.941       .  S
C22          O23   1.271       .  A
C22        C5110   1.475       .  S
O27         Ni33   1.916       .  S
O27          C48   1.268       .  A
O28         Ni51   1.947       .  S
O28          C37   1.276       .  A
O29         Ni33   1.887       .  S
O29         Ni51   1.913       .  S
O29         Ni45   1.920       .  S
O29          H52   0.965       .  S
C30          O47   1.283       .  A
C30          O39   1.276       .  A
C30        C5059   1.471       .  S
O31         Ni50   1.905       .  S
O31          C37   1.262       .  A
O32         Ni50   1.897       .  S
O32          C34   1.265       .  A
Ni33         O36   1.908       .  S
Ni33         O38   1.896       .  S
C34          O44   1.268       .  A
C34        C4966   1.468       .  S
O35         Ni51   1.938       .  S
O35          C41   1.284       .  A
O36          C41   1.276       .  A
C37        C4948   1.479       .  S
O38          C40   1.268       .  A
O39         Ni50   1.907       .  S
C40          O46   1.275       .  A
C40        C4984   1.475       .  S
C41        C5074   1.472       .  S
H42          O43   0.966       .  S
O43         Ni51   1.926       .  S
O43         Ni45   1.905       .  S
O43         Ni50   1.893       .  S
O44         Ni45   1.927       .  S
Ni45         O49   1.925       .  S
Ni45         O47   1.938       .  S
O46         Ni51   1.943       .  S
C48          O49   1.271       .  A
C48        C5002   1.476       .  S
O53         Ni59   1.929       .  S
O53          C74   1.269       .  A
O54         Ni77   1.945       .  S
O54          C63   1.274       .  A
O55         Ni59   1.895       .  S
O55         Ni77   1.919       .  S
O55         Ni71   1.921       .  S
O55          H78   0.965       .  S
C56          O73   1.285       .  A
C56          O65   1.277       .  A
C56        C4897   1.472       .  S
O57         Ni76   1.901       .  S
O57          C63   1.260       .  A
O58         Ni76   1.892       .  S
O58          C60   1.263       .  A
Ni59         O62   1.922       .  S
Ni59         O64   1.893       .  S
C60          O70   1.272       .  A
C60        C4879   1.470       .  S
O61         Ni77   1.927       .  S
O61          C67   1.281       .  A
O62          C67   1.277       .  A
C63        C4858   1.475       .  S
O64          C66   1.267       .  A
O65         Ni76   1.909       .  S
C66          O72   1.273       .  A
C66        C4930   1.474       .  S
C67        C4915   1.472       .  S
H68          O69   0.966       .  S
O69         Ni77   1.918       .  S
O69         Ni71   1.900       .  S
O69         Ni76   1.888       .  S
O70         Ni71   1.938       .  S
Ni71         O75   1.924       .  S
Ni71         O73   1.940       .  S
O72         Ni77   1.940       .  S
C74          O75   1.270       .  A
C74        C5113   1.472       .  S
O79         Ni85   1.914       .  S
O79         C100   1.268       .  A
O80        Ni103   1.926       .  S
O80          C89   1.270       .  A
O81         Ni85   1.901       .  S
O81        Ni103   1.925       .  S
O81         Ni97   1.938       .  S
O81         H104   0.966       .  S
C82          O99   1.283       .  A
C82          O91   1.277       .  A
C82        C4912   1.472       .  S
O83        Ni102   1.905       .  S
O83          C89   1.261       .  A
O84        Ni102   1.895       .  S
O84          C86   1.263       .  A
Ni85         O88   1.914       .  S
Ni85         O90   1.897       .  S
C86          O96   1.268       .  A
C86        C4825   1.465       .  S
O87        Ni103   1.926       .  S
O87          C93   1.273       .  A
O88          C93   1.269       .  A
C89        C4804   1.461       .  S
O90          C92   1.271       .  A
O91        Ni102   1.909       .  S
C92          O98   1.279       .  A
C92        C4843   1.475       .  S
C93        C4894   1.475       .  S
H94          O95   0.966       .  S
O95        Ni103   1.913       .  S
O95         Ni97   1.890       .  S
O95        Ni102   1.895       .  S
O96         Ni97   1.924       .  S
Ni97        O101   1.912       .  S
Ni97         O99   1.939       .  S
O98        Ni103   1.952       .  S
C100        O101   1.269       .  A
C100       C5005   1.466       .  S
O105       Ni111   1.923       .  S
O105        C126   1.268       .  A
O106       Ni129   1.933       .  S
O106        C115   1.271       .  A
O107       Ni111   1.888       .  S
O107       Ni129   1.912       .  S
O107       Ni123   1.917       .  S
O107        H130   0.966       .  S
C108        O125   1.281       .  A
C108        O117   1.277       .  A
C108       C4771   1.471       .  S
O109       Ni128   1.906       .  S
O109        C115   1.262       .  A
O110       Ni128   1.889       .  S
O110        C112   1.264       .  A
Ni111       O114   1.916       .  S
Ni111       O116   1.900       .  S
C112        O122   1.268       .  A
C112       C4735   1.467       .  S
O113       Ni129   1.942       .  S
O113        C119   1.284       .  A
O114        C119   1.278       .  A
C115       C4714   1.471       .  S
O116        C118   1.268       .  A
O117       Ni128   1.915       .  S
C118        O124   1.270       .  A
C118       C4987   1.472       .  S
C119       C4753   1.476       .  S
H120        O121   0.967       .  S
O121       Ni129   1.925       .  S
O121       Ni123   1.910       .  S
O121       Ni128   1.895       .  S
O122       Ni123   1.932       .  S
Ni123       O127   1.924       .  S
Ni123       O125   1.930       .  S
O124       Ni129   1.932       .  S
C126        O127   1.270       .  A
C126       C4786   1.473       .  S
O131       Ni137   1.919   1_655  S
O131        C152   1.268       .  A
O132       Ni155   1.940       .  S
O132        C141   1.273       .  A
O133       Ni137   1.884       .  S
O133       Ni155   1.908       .  S
O133       Ni149   1.920   1_455  S
O133        H156   0.965       .  S
C134        O151   1.285       .  A
C134        O143   1.278       .  A
C134       C4750   1.479       .  S
O135       Ni154   1.906       .  S
O135        C141   1.262   1_655  A
O136       Ni154   1.898       .  S
O136        C138   1.265       .  A
Ni137       O140   1.910       .  S
Ni137       O142   1.893       .  S
C138        O148   1.267       .  A
C138       C4678   1.467       .  S
O139       Ni155   1.940       .  S
O139        C145   1.285       .  A
O140        C145   1.277       .  A
C141       C4660   1.475       .  S
O142        C144   1.267       .  A
O143       Ni154   1.916       .  S
C144        O150   1.273       .  A
C144       C5092   1.471       .  S
C145       C4768   1.473       .  S
H146        O147   0.966       .  S
O147       Ni155   1.929   1_655  S
O147       Ni149   1.903       .  S
O147       Ni154   1.890       .  S
O148       Ni149   1.924       .  S
Ni149       O153   1.924       .  S
Ni149       O151   1.945       .  S
O150       Ni155   1.936       .  S
C152        O153   1.270       .  A
C152       C4696   1.468       .  S
O157       Ni163   1.926       .  S
O157        C178   1.269       .  A
O158       Ni181   1.938       .  S
O158        C167   1.274       .  A
O159       Ni163   1.886       .  S
O159       Ni181   1.913       .  S
O159       Ni175   1.919       .  S
O159        H182   0.965       .  S
C160        O177   1.285       .  A
C160        O169   1.276       .  A
C160       C4624   1.473       .  S
O161       Ni180   1.910       .  S
O161        C167   1.262       .  A
O162       Ni180   1.890       .  S
O162        C164   1.264       .  A
Ni163       O166   1.917       .  S
Ni163       O168   1.894       .  S
C164        O174   1.268       .  A
C164       C4609   1.464       .  S
O165       Ni181   1.933       .  S
O165        C171   1.282       .  A
O166        C171   1.278       .  A
C167       C4588   1.474       .  S
O168        C170   1.268       .  A
O169       Ni180   1.907       .  S
C170        O176   1.274       .  A
C170       C4933   1.473       .  S
C171       C4642   1.471       .  S
H172        O173   0.966       .  S
O173       Ni181   1.920       .  S
O173       Ni175   1.909       .  S
O173       Ni180   1.893       .  S
O174       Ni175   1.926       .  S
Ni175       O179   1.927       .  S
Ni175       O177   1.942       .  S
O176       Ni181   1.939       .  S
C178        O179   1.271       .  A
C178       C4789   1.474       .  S
O183       Ni189   1.928       .  S
O183        C204   1.270       .  A
O184       Ni207   1.941       .  S
O184        C193   1.277       .  A
O185       Ni189   1.881       .  S
O185       Ni207   1.908       .  S
O185       Ni201   1.912       .  S
O185        H208   0.966       .  S
C186        O203   1.284   1_455  A
C186        O195   1.277   1_455  A
C186       C4645   1.471       .  S
O187       Ni206   1.905       .  S
O187        C193   1.262       .  A
O188       Ni206   1.899       .  S
O188        C190   1.265       .  A
Ni189       O192   1.915       .  S
Ni189       O194   1.895       .  S
C190        O200   1.266       .  A
C190       C4570   1.464       .  S
O191       Ni207   1.933       .  S
O191        C197   1.283       .  A
O192        C197   1.278       .  A
C193       C4552   1.472       .  S
O194        C196   1.268       .  A
O195       Ni206   1.907       .  S
C196        O202   1.277       .  A
C196       C4840   1.478       .  S
C197       C4627   1.473       .  S
H198        O199   0.966       .  S
O199       Ni207   1.920       .  S
O199       Ni201   1.895       .  S
O199       Ni206   1.886       .  S
O200       Ni201   1.920       .  S
Ni201       O205   1.916       .  S
Ni201       O203   1.942       .  S
O202       Ni207   1.948       .  S
C204        O205   1.269       .  A
C204       C4699   1.467       .  S
O209       Ni215   1.916       .  S
O209        C230   1.269       .  A
O210       Ni233   1.933       .  S
O210        C219   1.274       .  A
O211       Ni215   1.900       .  S
O211       Ni233   1.919       .  S
O211       Ni227   1.937       .  S
O211        H234   0.967       .  S
C212        O229   1.281       .  A
C212        O221   1.276       .  A
C212       C4483   1.474       .  S
O213       Ni232   1.911       .  S
O213        C219   1.264       .  A
O214       Ni232   1.899       .  S
O214        C216   1.266       .  A
Ni215       O218   1.923       .  S
Ni215       O220   1.898       .  S
C216        O226   1.268       .  A
C216       C5041   1.469       .  S
O217       Ni233   1.926       .  S
O217        C223   1.275       .  A
O218        C223   1.270       .  A
C219       C4462   1.471       .  S
O220        C222   1.271       .  A
O221       Ni232   1.911       .  S
C222        O228   1.280       .  A
C222       C4516   1.470       .  S
C223       C4498   1.476       .  S
H224        O225   0.966       .  S
O225       Ni233   1.913       .  S
O225       Ni227   1.892       .  S
O225       Ni232   1.892       .  S
O226       Ni227   1.926       .  S
Ni227       O231   1.902       .  S
Ni227       O229   1.940       .  S
O228       Ni233   1.955       .  S
C230        O231   1.266       .  A
C230       C4534   1.459       .  S
O235       Ni241   1.919       .  S
O235        C256   1.267       .  A
O236       Ni259   1.933       .  S
O236        C245   1.272       .  A
O237       Ni241   1.886       .  S
O237       Ni259   1.906       .  S
O237       Ni253   1.920       .  S
O237        H260   0.966       .  S
C238        O255   1.282       .  A
C238        O247   1.277       .  A
C238       C4501   1.477       .  S
O239       Ni258   1.909       .  S
O239        C245   1.262       .  A
O240       Ni258   1.890       .  S
O240        C242   1.263       .  A
Ni241       O244   1.917       .  S
Ni241       O246   1.892       .  S
C242        O252   1.268       .  A
C242       C4969   1.467       .  S
O243       Ni259   1.938       .  S
O243        C249   1.285       .  A
O244        C249   1.278       .  A
C245       C4408   1.470       .  S
O246        C248   1.266       .  A
O247       Ni258   1.916       .  S
C248        O254   1.272       .  A
C248       C4429   1.471       .  S
C249       C4480   1.475       .  S
H250        O251   0.966       .  S
O251       Ni259   1.923       .  S
O251       Ni253   1.906       .  S
O251       Ni258   1.895       .  S
O252       Ni253   1.932       .  S
Ni253       O257   1.919       .  S
Ni253       O255   1.938       .  S
O254       Ni259   1.936       .  S
C256        O257   1.267       .  A
C256       C4444   1.465       .  S
O261       Ni267   1.909       .  S
O261        C282   1.266       .  A
O262       Ni285   1.930       .  S
O262        C271   1.273       .  A
O263       Ni267   1.884       .  S
O263       Ni285   1.902       .  S
O263       Ni279   1.924       .  S
O263        H286   0.978       .  S
C264        O281   1.285       .  A
C264        O273   1.279       .  A
C264       C4372   1.481       .  S
O265       Ni284   1.911       .  S
O265        C271   1.265       .  A
O266       Ni284   1.900       .  S
O266        C268   1.265       .  A
Ni267       O270   1.904       .  S
Ni267       O272   1.899       .  S
C268        O278   1.269       .  A
C268       C4876   1.471       .  S
O269       Ni285   1.943       .  S
O269        C275   1.284       .  A
O270        C275   1.275       .  A
C271       C4336   1.467       .  S
O272        C274   1.269       .  A
O273       Ni284   1.915       .  S
C274        O280   1.275       .  A
C274       C4390   1.476       .  S
C275       C4354   1.474   1_455  S
H276        O277   0.975       .  S
O277       Ni285   1.926       .  S
O277       Ni279   1.894       .  S
O277       Ni284   1.886       .  S
O278       Ni279   1.928       .  S
Ni279       O283   1.910       .  S
Ni279       O281   1.947       .  S
O280       Ni285   1.941       .  S
C282        O283   1.269       .  A
C282       C4537   1.461       .  S
O287       Ni293   1.922       .  S
O287        C308   1.268       .  A
O288       Ni311   1.941       .  S
O288        C297   1.273       .  A
O289       Ni293   1.888       .  S
O289       Ni311   1.910       .  S
O289       Ni305   1.921       .  S
O289        H312   0.965       .  S
C290        O307   1.285       .  A
C290        O299   1.277       .  A
C290       C4357   1.474       .  S
O291       Ni310   1.904       .  S
O291        C297   1.261       .  A
O292       Ni310   1.890       .  S
O292        C294   1.263       .  A
Ni293       O296   1.922       .  S
Ni293       O298   1.898       .  S
C294        O304   1.267       .  A
C294       C4822   1.458       .  S
O295       Ni311   1.938       .  S
O295        C301   1.285       .  A
O296        C301   1.278       .  A
C297       C4300   1.474       .  S
O298        C300   1.267       .  A
O299       Ni310   1.909       .  S
C300        O306   1.270       .  A
C300       C4321   1.470       .  S
C301       C4375   1.478       .  S
H302        O303   0.963       .  S
O303       Ni311   1.927       .  S
O303       Ni305   1.903       .  S
O303       Ni310   1.889       .  S
O304       Ni305   1.921       .  S
Ni305       O309   1.921       .  S
Ni305       O307   1.945       .  S
O306       Ni311   1.931       .  S
C308        O309   1.269       .  A
C308       C4447   1.467       .  S
O313       Ni319   1.913       .  S
O313        C334   1.266       .  A
O314       Ni337   1.941       .  S
O314        C323   1.275   1_545  A
O315       Ni319   1.891   1_565  S
O315       Ni337   1.909   1_565  S
O315       Ni331   1.929   1_565  S
O315        H338   0.965       .  S
C316        O333   1.286       .  A
C316        O325   1.278       .  A
C316       C4246   1.478       .  S
O317       Ni336   1.912       .  S
O317        C323   1.264       .  A
O318       Ni336   1.890       .  S
O318        C320   1.264       .  A
Ni319       O322   1.913       .  S
Ni319       O324   1.895       .  S
C320        O330   1.269       .  A
C320       C4732   1.466       .  S
O321       Ni337   1.936       .  S
O321        C327   1.282   1_545  A
O322        C327   1.276   1_545  A
C323       C4231   1.476       .  S
O324        C326   1.268       .  A
O325       Ni336   1.912   1_545  S
C326        O332   1.275       .  A
C326       C4519   1.469       .  S
C327       C4264   1.475       .  S
H328        O329   0.966       .  S
O329       Ni337   1.919       .  S
O329       Ni331   1.898       .  S
O329       Ni336   1.886   1_545  S
O330       Ni331   1.930   1_565  S
Ni331       O335   1.919       .  S
Ni331       O333   1.945       .  S
O332       Ni337   1.935       .  S
C334        O335   1.271       .  A
C334       C4282   1.465       .  S
O339       Ni345   1.932       .  S
O339        C360   1.271       .  A
O340       Ni363   1.939       .  S
O340        C349   1.272   1_545  A
O341       Ni345   1.891       .  S
O341       Ni363   1.917       .  S
O341       Ni357   1.920   1_545  S
O341        H364   0.972   1_545  S
C342        O359   1.286   1_545  A
C342        O351   1.278       .  A
C342       C4267   1.475   1_655  S
O343       Ni362   1.902       .  S
O343        C349   1.259       .  A
O344       Ni362   1.888       .  S
O344        C346   1.263       .  A
Ni345       O348   1.925       .  S
Ni345       O350   1.896       .  S
C346        O356   1.269       .  A
C346       C4681   1.465       .  S
O347       Ni363   1.931       .  S
O347        C353   1.281       .  A
O348        C353   1.278       .  A
C349       C4192   1.469       .  S
O350        C352   1.268       .  A
O351       Ni362   1.910   1_545  S
C352        O358   1.272       .  A
C352       C4426   1.470       .  S
C353       C4249   1.478       .  S
H354        O355   0.969       .  S
O355       Ni363   1.924       .  S
O355       Ni357   1.899   1_545  S
O355       Ni362   1.887   1_545  S
O356       Ni357   1.932       .  S
Ni357       O361   1.922       .  S
Ni357       O359   1.946       .  S
O358       Ni363   1.936       .  S
C360        O361   1.271   1_545  A
C360       C4210   1.474       .  S
O365       Ni371   1.917       .  S
O365        C386   1.269       .  A
O366       Ni389   1.931   1_545  S
O366        C375   1.272   1_545  A
O367       Ni371   1.886   1_565  S
O367       Ni389   1.910       .  S
O367       Ni383   1.927       .  S
O367        H390   0.964       .  S
C368        O385   1.285       .  A
C368        O377   1.276       .  A
C368       C4177   1.474       .  S
O369       Ni388   1.902       .  S
O369        C375   1.260       .  A
O370       Ni388   1.888       .  S
O370        C372   1.263       .  A
Ni371       O374   1.912   1_545  S
Ni371       O376   1.895       .  S
C372        O382   1.268       .  A
C372       C4606   1.466       .  S
O373       Ni389   1.937       .  S
O373        C379   1.281       .  A
O374        C379   1.275       .  A
C375       C4138   1.466       .  S
O376        C378   1.268       .  A
O377       Ni388   1.905   1_545  S
C378        O384   1.274       .  A
C378       C4318   1.473       .  S
C379       C4159   1.475       .  S
H380        O381   0.965       .  S
O381       Ni389   1.924   1_545  S
O381       Ni383   1.894   1_545  S
O381       Ni388   1.886   1_545  S
O382       Ni383   1.931       .  S
Ni383       O387   1.909       .  S
Ni383       O385   1.945   1_565  S
O384       Ni389   1.939   1_545  S
C386        O387   1.269   1_545  A
C386       C4285   1.460       .  S
O391       Ni397   1.927   1_655  S
O391        C412   1.269       .  A
O392       Ni415   1.942       .  S
O392        C401   1.273   1_545  A
O393       Ni397   1.893   1_565  S
O393       Ni415   1.922   1_565  S
O393       Ni409   1.921   1_455  S
O393        H416   0.966       .  S
C394        O411   1.286       .  A
C394        O403   1.276       .  A
C394       C4156   1.471       .  S
O395       Ni414   1.905       .  S
O395        C401   1.260   1_655  A
O396       Ni414   1.886       .  S
O396        C398   1.262       .  A
Ni397       O400   1.920       .  S
Ni397       O402   1.891       .  S
C398        O408   1.268       .  A
C398       C4573   1.459       .  S
O399       Ni415   1.927       .  S
O399        C405   1.280       .  A
O400        C405   1.276       .  A
C401       C4123   1.475       .  S
O402        C404   1.266       .  A
O403       Ni414   1.908       .  S
C404        O410   1.275       .  A
C404       C4393   1.473       .  S
C405       C4174   1.473       .  S
H406        O407   0.966       .  S
O407       Ni415   1.918   1_655  S
O407       Ni409   1.906   1_545  S
O407       Ni414   1.894   1_545  S
O408       Ni409   1.927       .  S
Ni409       O413   1.932       .  S
Ni409       O411   1.940       .  S
O410       Ni415   1.944       .  S
C412        O413   1.272   1_545  A
C412       C4213   1.479       .  S
O417       Ni423   1.900       .  S
O417        C438   1.259       .  A
O418       Ni441   1.900       .  S
O418        C427   1.265       .  A
O419       Ni423   1.891       .  S
O419       Ni441   1.891       .  S
O419       Ni435   1.919       .  S
O419        H442   0.966       .  S
C420        O437   1.278       .  A
C420        O429   1.273       .  A
C420       C4066   1.470       .  S
O421       Ni440   1.920       .  S
O421        C427   1.269       .  A
O422       Ni440   1.900       .  S
O422        C424   1.270       .  A
Ni423       O426   1.904       .  S
Ni423       O428   1.896       .  S
C424        O434   1.275       .  A
C424       C4087   1.474       .  S
O425       Ni441   1.946       .  S
O425        C431   1.285       .  A
O426        C431   1.276       .  A
C427       C4102   1.454       .  S
O428        C430   1.263       .  A
O429       Ni440   1.913       .  S
C430        O436   1.264       .  A
C430       C4030   1.462       .  S
C431       C4048   1.472       .  S
H432        O433   0.966       .  S
O433       Ni441   1.925       .  S
O433       Ni435   1.918       .  S
O433       Ni440   1.895       .  S
O434       Ni435   1.942       .  S
Ni435       O439   1.936       .  S
Ni435       O437   1.923       .  S
O436       Ni441   1.918       .  S
C438        O439   1.273       .  A
C438       C4861   1.468       .  S
O443       Ni449   1.904       .  S
O443        C464   1.261       .  A
O444       Ni467   1.917       .  S
O444        C453   1.270       .  A
O445       Ni449   1.882       .  S
O445       Ni467   1.896       .  S
O445       Ni461   1.920       .  S
O445        H468   0.966       .  S
C446        O463   1.282       .  A
C446        O455   1.278       .  A
C446       C4051   1.471       .  S
O447       Ni466   1.919       .  S
O447        C453   1.269       .  A
O448       Ni466   1.898       .  S
O448        C450   1.267       .  A
Ni449       O452   1.905       .  S
Ni449       O454   1.888       .  S
C450        O460   1.273       .  A
C450       C3997   1.479       .  S
O451       Ni467   1.945       .  S
O451        C457   1.286       .  A
O452        C457   1.278       .  A
C453       C4012   1.463       .  S
O454        C456   1.263       .  A
O455       Ni466   1.915       .  S
C456        O462   1.271       .  A
C456       C3976   1.471       .  S
C457       C4069   1.472       .  S
H458        O459   0.966       .  S
O459       Ni467   1.918       .  S
O459       Ni461   1.901       .  S
O459       Ni466   1.880       .  S
O460       Ni461   1.942       .  S
Ni461       O465   1.922       .  S
Ni461       O463   1.933       .  S
O462       Ni467   1.939       .  S
C464        O465   1.270       .  A
C464       C4807   1.460       .  S
O469       Ni475   1.903       .  S
O469        C490   1.262       .  A
O470       Ni493   1.910       .  S
O470        C479   1.268       .  A
O471       Ni475   1.885       .  S
O471       Ni493   1.894       .  S
O471       Ni487   1.925       .  S
O471        H494   0.967       .  S
C472        O489   1.282       .  A
C472        O481   1.276       .  A
C472       C3922   1.468       .  S
O473       Ni492   1.909       .  S
O473        C479   1.266       .  A
O474       Ni492   1.892       .  S
O474        C476   1.268       .  A
Ni475       O478   1.905       .  S
Ni475       O480   1.897       .  S
C476        O486   1.275       .  A
C476       C3961   1.477       .  S
O477       Ni493   1.947       .  S
O477        C483   1.285       .  A
O478        C483   1.276       .  A
C479       C4105   1.460       .  S
O480        C482   1.264       .  A
O481       Ni492   1.911       .  S
C482        O488   1.269       .  A
C482       C3904   1.469       .  S
C483       C3943   1.474       .  S
H484        O485   0.966       .  S
O485       Ni493   1.925       .  S
O485       Ni487   1.903       .  S
O485       Ni492   1.884       .  S
O486       Ni487   1.946       .  S
Ni487       O491   1.928       .  S
Ni487       O489   1.930       .  S
O488       Ni493   1.930       .  S
C490        O491   1.273       .  A
C490       C3886   1.466       .  S
O495       Ni501   1.906       .  S
O495        C516   1.262       .  A
O496       Ni519   1.918       .  S
O496        C505   1.269       .  A
O497       Ni501   1.884       .  S
O497       Ni519   1.900       .  S
O497       Ni513   1.921       .  S
O497        H520   0.966       .  S
C498        O515   1.284       .  A
C498        O507   1.278       .  A
C498       C3940   1.471   1_655  S
O499       Ni518   1.919       .  S
O499        C505   1.267       .  A
O500       Ni518   1.895       .  S
O500        C502   1.266       .  A
Ni501       O504   1.908       .  S
Ni501       O506   1.894       .  S
C502        O512   1.275       .  A
C502       C3868   1.477       .  S
O503       Ni519   1.935       .  S
O503        C509   1.283       .  A
O504        C509   1.277       .  A
C505       C4015   1.464       .  S
O506        C508   1.264       .  A
O507       Ni518   1.914       .  S
C508        O514   1.271       .  A
C508       C3853   1.473       .  S
C509       C3925   1.468       .  S
H510        O511   0.966       .  S
O511       Ni519   1.914       .  S
O511       Ni513   1.907       .  S
O511       Ni518   1.884       .  S
O512       Ni513   1.945       .  S
Ni513       O517   1.938       .  S
Ni513       O515   1.933       .  S
O514       Ni519   1.938       .  S
C516        O517   1.274       .  A
C516       C3832   1.471       .  S
O521       Ni527   1.912       .  S
O521        C542   1.263   1_455  A
O522       Ni545   1.916       .  S
O522        C531   1.270       .  A
O523       Ni527   1.895       .  S
O523       Ni545   1.902       .  S
O523       Ni539   1.916   1_455  S
O523        H546   0.966       .  S
C524        O541   1.277       .  A
C524        O533   1.274       .  A
C524       C3781   1.473       .  S
O525       Ni544   1.923   1_455  S
O525        C531   1.270       .  A
O526       Ni544   1.908       .  S
O526        C528   1.271       .  A
Ni527       O530   1.909       .  S
Ni527       O532   1.892       .  S
C528        O538   1.274       .  A
C528       C3871   1.474       .  S
O529       Ni545   1.943       .  S
O529        C535   1.285       .  A
O530        C535   1.276       .  A
C531       C3814   1.467       .  S
O532        C534   1.264       .  A
O533       Ni544   1.914       .  S
C534        O540   1.268       .  A
C534       C3760   1.465       .  S
C535       C3796   1.476       .  S
H536        O537   0.966       .  S
O537       Ni545   1.926   1_655  S
O537       Ni539   1.915       .  S
O537       Ni544   1.897       .  S
O538       Ni539   1.930       .  S
Ni539       O543   1.930       .  S
Ni539       O541   1.928       .  S
O540       Ni545   1.925       .  S
C542        O543   1.270       .  A
C542       C3742   1.468       .  S
O547       Ni553   1.901       .  S
O547        C568   1.259       .  A
O548       Ni571   1.929       .  S
O548        C557   1.273       .  A
O549       Ni553   1.889       .  S
O549       Ni571   1.902       .  S
O549       Ni565   1.922       .  S
O549        H572   0.966       .  S
C550        O567   1.281       .  A
C550        O559   1.278       .  A
C550       C3799   1.478       .  S
O551       Ni570   1.929       .  S
O551        C557   1.270       .  A
O552       Ni570   1.892       .  S
O552        C554   1.267       .  A
Ni553       O556   1.903       .  S
Ni553       O558   1.889       .  S
C554        O564   1.273       .  A
C554       C3958   1.471       .  S
O555       Ni571   1.954       .  S
O555        C561   1.289       .  A
O556        C561   1.276       .  A
C557       C3724   1.476       .  S
O558        C560   1.263       .  A
O559       Ni570   1.923       .  S
C560        O566   1.269       .  A
C560       C3706   1.465       .  S
C561       C3778   1.475       .  S
H562        O563   0.966       .  S
O563       Ni571   1.928       .  S
O563       Ni565   1.920       .  S
O563       Ni570   1.892       .  S
O564       Ni565   1.938       .  S
Ni565       O569   1.942       .  S
Ni565       O567   1.933       .  S
O566       Ni571   1.930       .  S
C568        O569   1.273       .  A
C568       C3688   1.475       .  S
O573       Ni579   1.906       .  S
O573        C594   1.262       .  A
O574       Ni597   1.921       .  S
O574        C583   1.270       .  A
O575       Ni579   1.888       .  S
O575       Ni597   1.894       .  S
O575       Ni591   1.926       .  S
O575        H598   0.965       .  S
C576        O593   1.283       .  A
C576        O585   1.277       .  A
C576       C3673   1.479       .  S
O577       Ni596   1.916       .  S
O577        C583   1.269       .  A
O578       Ni596   1.895       .  S
O578        C580   1.269       .  A
Ni579       O582   1.909       .  S
Ni579       O584   1.897       .  S
C580        O590   1.276       .  A
C580       C4084   1.478       .  S
O581       Ni597   1.951       .  S
O581        C587   1.287       .  A
O582        C587   1.278       .  A
C583       C3817   1.472       .  S
O584        C586   1.264       .  A
O585       Ni596   1.918       .  S
C586        O592   1.266       .  A
C586       C3634   1.463       .  S
C587       C3655   1.477   1_455  S
H588        O589   0.965       .  S
O589       Ni597   1.927       .  S
O589       Ni591   1.907       .  S
O589       Ni596   1.885       .  S
O590       Ni591   1.948       .  S
Ni591       O595   1.934       .  S
Ni591       O593   1.938       .  S
O592       Ni597   1.920       .  S
C594        O595   1.274       .  A
C594       C4339   1.468       .  S
O599       Ni605   1.912       .  S
O599        C620   1.263       .  A
O600       Ni623   1.928       .  S
O600        C609   1.270       .  A
O601       Ni605   1.894       .  S
O601       Ni623   1.907       .  S
O601       Ni617   1.926       .  S
O601        H624   0.966       .  S
C602        O619   1.284       .  A
C602        O611   1.278       .  A
C602       C3652   1.477       .  S
O603       Ni622   1.924       .  S
O603        C609   1.268       .  A
O604       Ni622   1.893       .  S
O604        C606   1.267       .  A
Ni605       O608   1.918       .  S
Ni605       O610   1.890       .  S
C606        O616   1.275       .  A
C606       C3994   1.478       .  S
O607       Ni623   1.941       .  S
O607        C613   1.284       .  A
O608        C613   1.279       .  A
C609       C3727   1.474       .  S
O610        C612   1.263       .  A
O611       Ni622   1.919       .  S
C612        O618   1.269       .  A
C612       C3616   1.464       .  S
C613       C3670   1.479       .  S
H614        O615   0.966       .  S
O615       Ni623   1.921       .  S
O615       Ni617   1.913       .  S
O615       Ni622   1.887       .  S
O616       Ni617   1.946       .  S
Ni617       O621   1.939       .  S
Ni617       O619   1.937       .  S
O618       Ni623   1.930       .  S
C620        O621   1.275       .  A
C620       C4303   1.475       .  S
O625       Ni631   1.903   1_655  S
O625        C646   1.260       .  A
O626       Ni649   1.924       .  S
O626        C635   1.270   1_545  A
O627       Ni631   1.895   1_565  S
O627       Ni649   1.905   1_565  S
O627       Ni643   1.927   1_455  S
O627        H650   0.965       .  S
C628        O645   1.284       .  A
C628        O637   1.278       .  A
C628       C3544   1.478   1_565  S
O629       Ni648   1.925   1_455  S
O629        C635   1.268       .  A
O630       Ni648   1.897       .  S
O630        C632   1.267       .  A
Ni631       O634   1.917       .  S
Ni631       O636   1.885       .  S
C632        O642   1.274       .  A
C632       C3580   1.472       .  S
O633       Ni649   1.934       .  S
O633        C639   1.284       .  A
O634        C639   1.278       .  A
C635       C3598   1.472       .  S
O636        C638   1.261       .  A
O637       Ni648   1.918       .  S
C638        O644   1.268       .  A
C638       C3637   1.461       .  S
C639       C3565   1.473       .  S
H640        O641   0.962       .  S
O641       Ni649   1.921   1_655  S
O641       Ni643   1.914   1_545  S
O641       Ni648   1.889   1_545  S
O642       Ni643   1.939       .  S
Ni643       O647   1.942       .  S
Ni643       O645   1.942       .  S
O644       Ni649   1.930       .  S
C646        O647   1.273   1_545  A
C646       C4120   1.474       .  S
O651       Ni657   1.905       .  S
O651        C672   1.262       .  A
O652       Ni675   1.904   1_545  S
O652        C661   1.269       .  A
O653       Ni657   1.893   1_565  S
O653       Ni675   1.890       .  S
O653       Ni669   1.916       .  S
O653        H676   0.967       .  S
C654        O671   1.272   1_565  A
C654        O663   1.267       .  A
C654       C3562   1.475   1_565  S
O655       Ni674   1.908       .  S
O655        C661   1.269   1_565  A
O656       Ni674   1.895       .  S
O656        C658   1.272       .  A
Ni657       O660   1.907   1_545  S
Ni657       O662   1.902       .  S
C658        O668   1.285       .  A
C658       C3511   1.476       .  S
O659       Ni675   1.957       .  S
O659        C665   1.287       .  A
O660        C665   1.276       .  A
C661       C3526   1.458       .  S
O662        C664   1.265       .  A
O663       Ni674   1.916       .  S
C664        O670   1.266       .  A
C664       C3619   1.465       .  S
C665       C3547   1.481       .  S
H666        O667   0.966       .  S
O667       Ni675   1.943   1_545  S
O667       Ni669   1.913   1_545  S
O667       Ni674   1.899   1_545  S
O668       Ni669   1.967       .  S
Ni669       O673   1.931       .  S
Ni669       O671   1.929   1_565  S
O670       Ni675   1.916   1_545  S
C672        O673   1.272   1_545  A
C672       C4141   1.467       .  S
O677       Ni683   1.905       .  S
O677        C698   1.260       .  A
O678       Ni701   1.931       .  S
O678        C687   1.272   1_545  A
O679       Ni683   1.896   1_565  S
O679       Ni701   1.904   1_565  S
O679       Ni695   1.921       .  S
O679        H702   0.967       .  S
C680        O697   1.281       .  A
C680        O689   1.277       .  A
C680       C3475   1.469       .  S
O681       Ni700   1.922       .  S
O681        C687   1.268       .  A
O682       Ni700   1.889       .  S
O682        C684   1.266       .  A
Ni683       O686   1.913       .  S
Ni683       O688   1.892       .  S
C684        O694   1.273       .  A
C684       C3490   1.469       .  S
O685       Ni701   1.939       .  S
O685        C691   1.285   1_455  A
O686        C691   1.277   1_455  A
C687       C3601   1.475       .  S
O688        C690   1.263       .  A
O689       Ni700   1.919       .  S
C690        O696   1.268       .  A
C690       C3763   1.462       .  S
C691       C3454   1.473       .  S
H692        O693   0.966       .  S
O693       Ni701   1.915       .  S
O693       Ni695   1.912   1_545  S
O693       Ni700   1.889   1_545  S
O694       Ni695   1.938       .  S
Ni695       O699   1.940       .  S
Ni695       O697   1.923       .  S
O696       Ni701   1.924       .  S
C698        O699   1.274   1_545  A
C698       C3436   1.473       .  S
O703       Ni709   1.910       .  S
O703        C724   1.263   1_545  A
O704       Ni727   1.910   1_545  S
O704        C713   1.267   1_545  A
O705       Ni709   1.892   1_565  S
O705       Ni727   1.902       .  S
O705       Ni721   1.917       .  S
O705        H728   0.967       .  S
C706        O723   1.279       .  A
C706        O715   1.275       .  A
C706       C3457   1.475       .  S
O707       Ni726   1.918       .  S
O707        C713   1.268       .  A
O708       Ni726   1.898       .  S
O708        C710   1.269       .  A
Ni709       O712   1.904   1_545  S
Ni709       O714   1.892       .  S
C710        O720   1.274       .  A
C710       C3418   1.474       .  S
O711       Ni727   1.942       .  S
O711        C717   1.283       .  A
O712        C717   1.276       .  A
C713       C3529   1.464       .  S
O714        C716   1.264       .  A
O715       Ni726   1.915       .  S
C716        O722   1.268       .  A
C716       C3709   1.466       .  S
C717       C3472   1.472       .  S
H718        O719   0.966       .  S
O719       Ni727   1.927   1_545  S
O719       Ni721   1.913   1_545  S
O719       Ni726   1.895   1_545  S
O720       Ni721   1.938       .  S
Ni721       O725   1.929       .  S
Ni721       O723   1.932       .  S
O722       Ni727   1.926   1_545  S
C724        O725   1.271       .  A
C724       C3400   1.467       .  S
O729       Ni735   1.910       .  S
O729        C750   1.262       .  A
O730       Ni753   1.921       .  S
O730        C739   1.270       .  A
O731       Ni735   1.895       .  S
O731       Ni753   1.903       .  S
O731       Ni747   1.916       .  S
O731        H754   0.966       .  S
C732        O749   1.278       .  A
C732        O741   1.274       .  A
C732       C3346   1.475       .  S
O733       Ni752   1.921       .  S
O733        C739   1.270       .  A
O734       Ni752   1.904       .  S
O734        C736   1.270       .  A
Ni735       O738   1.908       .  S
Ni735       O740   1.896       .  S
C736        O746   1.274       .  A
C736       C3508   1.473       .  S
O737       Ni753   1.937       .  S
O737        C743   1.283       .  A
O738        C743   1.275       .  A
C739       C3382   1.474       .  S
O740        C742   1.264       .  A
O741       Ni752   1.915       .  S
C742        O748   1.266       .  A
C742       C4033   1.460       .  S
C743       C3364   1.470       .  S
H744        O745   0.966       .  S
O745       Ni753   1.927       .  S
O745       Ni747   1.917       .  S
O745       Ni752   1.896       .  S
O746       Ni747   1.933       .  S
Ni747       O751   1.935       .  S
Ni747       O749   1.930       .  S
O748       Ni753   1.916       .  S
C750        O751   1.272       .  A
C750       C4591   1.471       .  S
O755       Ni761   1.904       .  S
O755        C776   1.261       .  A
O756       Ni779   1.920       .  S
O756        C765   1.271       .  A
O757       Ni761   1.888       .  S
O757       Ni779   1.898       .  S
O757       Ni773   1.919       .  S
O757        H780   0.965       .  S
C758        O775   1.280       .  A
C758        O767   1.274       .  A
C758       C3367   1.468   1_655  S
O759       Ni778   1.915       .  S
O759        C765   1.268       .  A
O760       Ni778   1.903       .  S
O760        C762   1.270       .  A
Ni761       O764   1.908       .  S
Ni761       O766   1.894       .  S
C762        O772   1.274       .  A
C762       C3583   1.471       .  S
O763       Ni779   1.939       .  S
O763        C769   1.285       .  A
O764        C769   1.276       .  A
C765       C3328   1.471       .  S
O766        C768   1.264       .  A
O767       Ni778   1.911       .  S
C768        O774   1.267       .  A
C768       C3979   1.465       .  S
C769       C3349   1.471       .  S
H770        O771   0.966       .  S
O771       Ni779   1.924       .  S
O771       Ni773   1.911       .  S
O771       Ni778   1.891       .  S
O772       Ni773   1.931       .  S
Ni773       O777   1.940       .  S
Ni773       O775   1.929       .  S
O774       Ni779   1.923       .  S
C776        O777   1.273       .  A
C776       C4555   1.472       .  S
O781       Ni787   1.900       .  S
O781        C802   1.259       .  A
O782       Ni805   1.918       .  S
O782        C791   1.269       .  A
O783       Ni787   1.897       .  S
O783       Ni805   1.900       .  S
O783       Ni799   1.920       .  S
O783        H806   0.966       .  S
C784        O801   1.283       .  A
C784        O793   1.274       .  A
C784       C3310   1.475       .  S
O785       Ni804   1.915       .  S
O785        C791   1.267       .  A
O786       Ni804   1.900       .  S
O786        C788   1.270       .  A
Ni787       O790   1.911       .  S
Ni787       O792   1.885       .  S
C788        O798   1.273       .  A
C788       C3493   1.471       .  S
O789       Ni805   1.928       .  S
O789        C795   1.283       .  A
O790        C795   1.277       .  A
C791       C3385   1.468       .  S
O792        C794   1.261       .  A
O793       Ni804   1.907       .  S
C794        O800   1.267       .  A
C794       C3907   1.462       .  S
C795       C3292   1.465       .  S
H796        O797   0.964       .  S
O797       Ni805   1.926       .  S
O797       Ni799   1.916       .  S
O797       Ni804   1.892       .  S
O798       Ni799   1.933       .  S
Ni799       O803   1.941       .  S
Ni799       O801   1.941       .  S
O800       Ni805   1.929       .  S
C802        O803   1.272       .  A
C802       C3274   1.472       .  S
O807       Ni813   1.909       .  S
O807        C828   1.262       .  A
O808       Ni831   1.912       .  S
O808        C817   1.270       .  A
O809       Ni813   1.893       .  S
O809       Ni831   1.895       .  S
O809       Ni825   1.906       .  S
O809        H832   0.966       .  S
C810        O827   1.268       .  A
C810        O819   1.268       .  A
C810       C3295   1.466       .  S
O811       Ni830   1.915       .  S
O811        C817   1.269       .  A
O812       Ni830   1.901       .  S
O812        C814   1.273       .  A
Ni813       O816   1.909       .  S
Ni813       O818   1.894       .  S
C814        O824   1.280       .  A
C814       C3421   1.472       .  S
O815       Ni831   1.945       .  S
O815        C821   1.285       .  A
O816        C821   1.276       .  A
C817       C3331   1.467       .  S
O818        C820   1.264       .  A
O819       Ni830   1.920       .  S
C820        O826   1.270       .  A
C820       C3850   1.471       .  S
C821       C3313   1.476       .  S
H822        O823   0.967       .  S
O823       Ni831   1.947       .  S
O823       Ni825   1.922       .  S
O823       Ni830   1.907       .  S
O824       Ni825   1.953       .  S
Ni825       O829   1.929       .  S
Ni825       O827   1.913       .  S
O826       Ni831   1.932       .  S
C828        O829   1.269       .  A
C828       C3256   1.467       .  S
O833       Ni839   1.916       .  S
O833        C854   1.269       .  A
O834       Ni857   1.942       .  S
O834        C843   1.277       .  A
O835       Ni839   1.882       .  S
O835       Ni857   1.905       .  S
O835       Ni851   1.927       .  S
O835        H858   0.966       .  S
C836        O853   1.286       .  A
C836        O845   1.276       .  A
C836       C3202   1.475       .  S
O837       Ni856   1.903       .  S
O837        C843   1.261       .  A
O838       Ni856   1.892       .  S
O838        C840   1.264       .  A
Ni839       O842   1.912       .  S
Ni839       O844   1.906       .  S
C840        O850   1.268       .  A
C840       C3166   1.467       .  S
O841       Ni857   1.942       .  S
O841        C847   1.284       .  A
O842        C847   1.276       .  A
C843       C3151   1.475       .  S
O844        C846   1.271       .  A
O845       Ni856   1.905       .  S
C846        O852   1.277       .  A
C846       C3220   1.480       .  S
C847       C3187   1.477       .  S
H848        O849   0.966       .  S
O849       Ni857   1.926       .  S
O849       Ni851   1.895       .  S
O849       Ni856   1.883       .  S
O850       Ni851   1.929       .  S
Ni851       O855   1.914       .  S
Ni851       O853   1.948       .  S
O852       Ni857   1.942       .  S
C854        O855   1.271       .  A
C854       C3238   1.463       .  S
O859       Ni865   1.917   1_655  S
O859        C880   1.266       .  A
O860       Ni883   1.941       .  S
O860        C869   1.272       .  A
O861       Ni865   1.887       .  S
O861       Ni883   1.909       .  S
O861       Ni877   1.922   1_455  S
O861        H884   0.966       .  S
C862        O879   1.286       .  A
C862        O871   1.277       .  A
C862       C3184   1.477       .  S
O863       Ni882   1.904       .  S
O863        C869   1.260   1_655  A
O864       Ni882   1.886       .  S
O864        C866   1.263       .  A
Ni865       O868   1.919       .  S
Ni865       O870   1.891       .  S
C866        O876   1.272       .  A
C866       C3094   1.466       .  S
O867       Ni883   1.935       .  S
O867        C873   1.285       .  A
O868        C873   1.279       .  A
C869       C3076   1.472       .  S
O870        C872   1.265       .  A
O871       Ni882   1.911       .  S
C872        O878   1.270       .  A
C872       C3112   1.467       .  S
C873       C3205   1.474       .  S
H874        O875   0.966       .  S
O875       Ni883   1.926   1_655  S
O875       Ni877   1.905       .  S
O875       Ni882   1.887       .  S
O876       Ni877   1.936       .  S
Ni877       O881   1.930       .  S
Ni877       O879   1.946       .  S
O878       Ni883   1.931       .  S
C880        O881   1.273       .  A
C880       C3130   1.470       .  S
O885       Ni891   1.909       .  S
O885        C906   1.267       .  A
O886       Ni909   1.934       .  S
O886        C895   1.273       .  A
O887       Ni891   1.885       .  S
O887       Ni909   1.904       .  S
O887       Ni903   1.923       .  S
O887        H910   0.968       .  S
C888        O905   1.283       .  A
C888        O897   1.277       .  A
C888       C3025   1.473       .  S
O889       Ni908   1.902       .  S
O889        C895   1.262       .  A
O890       Ni908   1.895       .  S
O890        C892   1.265       .  A
Ni891       O894   1.905       .  S
Ni891       O896   1.901       .  S
C892        O902   1.270       .  A
C892       C3004   1.470       .  S
O893       Ni909   1.940       .  S
O893        C899   1.283       .  A
O894        C899   1.275       .  A
C895       C3889   1.468       .  S
O896        C898   1.268       .  A
O897       Ni908   1.912       .  S
C898        O904   1.276       .  A
C898       C3061   1.478       .  S
C899       C3040   1.473       .  S
H900        O901   0.970       .  S
O901       Ni909   1.928       .  S
O901       Ni903   1.896       .  S
O901       Ni908   1.887       .  S
O902       Ni903   1.932       .  S
Ni903       O907   1.913       .  S
Ni903       O905   1.938       .  S
O904       Ni909   1.943       .  S
C906        O907   1.269       .  A
C906       C3241   1.459       .  S
O911       Ni917   1.926       .  S
O911        C932   1.269       .  A
O912       Ni935   1.934       .  S
O912        C921   1.273       .  A
O913       Ni917   1.887       .  S
O913       Ni935   1.909       .  S
O913       Ni929   1.920       .  S
O913        H936   0.965       .  S
C914        O931   1.284   1_455  A
C914        O923   1.277   1_455  A
C914       C3043   1.474       .  S
O915       Ni934   1.907       .  S
O915        C921   1.262       .  A
O916       Ni934   1.896       .  S
O916        C918   1.263       .  A
Ni917       O920   1.920       .  S
Ni917       O922   1.893       .  S
C918        O928   1.266       .  A
C918       C2968   1.463       .  S
O919       Ni935   1.929       .  S
O919        C925   1.281       .  A
O920        C925   1.278       .  A
C921       C3835   1.470       .  S
O922        C924   1.267       .  A
O923       Ni934   1.913       .  S
C924        O930   1.276       .  A
C924       C2986   1.477       .  S
C925       C3022   1.472       .  S
H926        O927   0.967       .  S
O927       Ni935   1.918       .  S
O927       Ni929   1.902       .  S
O927       Ni934   1.893       .  S
O928       Ni929   1.924       .  S
Ni929       O933   1.917       .  S
Ni929       O931   1.939       .  S
O930       Ni935   1.946       .  S
C932        O933   1.268       .  A
C932       C3133   1.467       .  S
O937       Ni943   1.911       .  S
O937        C958   1.267       .  A
O938       Ni961   1.933       .  S
O938        C947   1.276       .  A
O939       Ni943   1.885       .  S
O939       Ni961   1.904       .  S
O939       Ni955   1.924       .  S
O939        H962   0.965       .  S
C940        O957   1.284       .  A
C940        O949   1.278       .  A
C940       C2932   1.475       .  S
O941       Ni960   1.912       .  S
O941        C947   1.265       .  A
O942       Ni960   1.897       .  S
O942        C944   1.264       .  A
Ni943       O946   1.910       .  S
Ni943       O948   1.897       .  S
C944        O954   1.271       .  A
C944       C2896   1.474       .  S
O945       Ni961   1.941       .  S
O945        C951   1.285       .  A
O946        C951   1.276       .  A
C947       C2881   1.471       .  S
O948        C950   1.268       .  A
O949       Ni960   1.914       .  S
C950        O956   1.276       .  A
C950       C3115   1.478       .  S
C951       C2917   1.473   1_455  S
H952        O953   0.966       .  S
O953       Ni961   1.923       .  S
O953       Ni955   1.894       .  S
O953       Ni960   1.885       .  S
O954       Ni955   1.937       .  S
Ni955       O959   1.913       .  S
Ni955       O957   1.940       .  S
O956       Ni961   1.947       .  S
C958        O959   1.270       .  A
C958       C2953   1.462       .  S
O963       Ni969   1.920       .  S
O963        C984   1.268       .  A
O964       Ni987   1.927       .  S
O964        C973   1.272       .  A
O965       Ni969   1.886       .  S
O965       Ni987   1.903       .  S
O965       Ni981   1.916       .  S
O965        H988   0.966       .  S
C966        O983   1.283       .  A
C966        O975   1.277       .  A
C966       C2914   1.475       .  S
O967       Ni986   1.908       .  S
O967        C973   1.262       .  A
O968       Ni986   1.895       .  S
O968        C970   1.263       .  A
Ni969       O972   1.918       .  S
Ni969       O974   1.900       .  S
C970        O980   1.270       .  A
C970       C2845   1.470       .  S
O971       Ni987   1.932       .  S
O971        C977   1.283       .  A
O972        C977   1.279       .  A
C973       C2827   1.465       .  S
O974        C976   1.267       .  A
O975       Ni986   1.911       .  S
C976        O982   1.275       .  A
C976       C3223   1.482       .  S
C977       C2935   1.474       .  S
H978        O979   0.967       .  S
O979       Ni987   1.923       .  S
O979       Ni981   1.900       .  S
O979       Ni986   1.889       .  S
O980       Ni981   1.934       .  S
Ni981       O985   1.904       .  S
Ni981       O983   1.942       .  S
O982       Ni987   1.949       .  S
C984        O985   1.266       .  A
C984       C2860   1.454       .  S
O989       Ni995   1.905       .  S
O989       C1010   1.268       .  A
O990      Ni1013   1.927       .  S
O990        C999   1.271       .  A
O991       Ni995   1.904       .  S
O991      Ni1013   1.914       .  S
O991      Ni1007   1.953       .  S
O991       H1014   0.966       .  S
C992       O1009   1.288       .  A
C992       O1001   1.278       .  A
C992       C2791   1.481       .  S
O993      Ni1012   1.908       .  S
O993        C999   1.264       .  A
O994      Ni1012   1.893       .  S
O994        C996   1.265       .  A
Ni995       O998   1.921       .  S
Ni995      O1000   1.901       .  S
C996       O1006   1.270       .  A
C996       C2770   1.472       .  S
O997      Ni1013   1.929       .  S
O997       C1003   1.271       .  A
O998       C1003   1.266       .  A
C999       C3277   1.467       .  S
O1000      C1002   1.274       .  A
O1001     Ni1012   1.907       .  S
C1002      O1008   1.285       .  A
C1002      C3058   1.476       .  S
C1003      C2806   1.475       .  S
H1004      O1005   0.964       .  S
O1005     Ni1013   1.910       .  S
O1005     Ni1007   1.888       .  S
O1005     Ni1012   1.886       .  S
O1006     Ni1007   1.933       .  S
Ni1007     O1011   1.910       .  S
Ni1007     O1009   1.956       .  S
O1008     Ni1013   1.967       .  S
C1010      O1011   1.271       .  A
C1010      C2950   1.459       .  S
O1015     Ni1021   1.919       .  S
O1015      C1036   1.266       .  A
O1016     Ni1039   1.943       .  S
O1016      C1025   1.275       .  A
O1017     Ni1021   1.886       .  S
O1017     Ni1039   1.913       .  S
O1017     Ni1033   1.920       .  S
O1017      H1040   0.963       .  S
C1018      O1035   1.282       .  A
C1018      O1027   1.278       .  A
C1018      C2809   1.471       .  S
O1019     Ni1038   1.898       .  S
O1019      C1025   1.258       .  A
O1020     Ni1038   1.881       .  S
O1020      C1022   1.260       .  A
Ni1021     O1024   1.910       .  S
Ni1021     O1026   1.891       .  S
C1022      O1032   1.266       .  A
C1022      C2752   1.460       .  S
O1023     Ni1039   1.952       .  S
O1023      C1029   1.288       .  A
O1024      C1029   1.277       .  A
C1025      C3259   1.472       .  S
O1026      C1028   1.266       .  A
O1027     Ni1038   1.915       .  S
C1028      O1034   1.274       .  A
C1028      C2989   1.472       .  S
C1029      C2788   1.481       .  S
H1030      O1031   0.970       .  S
O1031     Ni1039   1.930       .  S
O1031     Ni1033   1.899       .  S
O1031     Ni1038   1.895       .  S
O1032     Ni1033   1.928       .  S
Ni1033     O1037   1.908       .  S
Ni1033     O1035   1.935       .  S
O1034     Ni1039   1.939       .  S
C1036      O1037   1.264       .  A
C1036      C2863   1.458       .  S
O1041     Ni1047   1.925       .  S
O1041      C1062   1.269       .  A
O1042     Ni1065   1.933       .  S
O1042      C1051   1.272       .  A
O1043     Ni1047   1.886       .  S
O1043     Ni1065   1.910       .  S
O1043     Ni1059   1.918       .  S
O1043      H1066   0.963       .  S
C1044      O1061   1.284       .  A
C1044      O1053   1.277       .  A
C1044      C2683   1.472       .  S
O1045     Ni1064   1.906       .  S
O1045      C1051   1.262       .  A
O1046     Ni1064   1.891       .  S
O1046      C1048   1.263       .  A
Ni1047     O1050   1.916       .  S
Ni1047     O1052   1.892       .  S
C1048      O1058   1.268       .  A
C1048      C3169   1.465       .  S
O1049     Ni1065   1.933       .  S
O1049      C1055   1.282       .  A
O1050      C1055   1.278       .  A
C1051      C2662   1.469       .  S
O1052      C1054   1.266       .  A
O1053     Ni1064   1.912       .  S
C1054      O1060   1.274       .  A
C1054      C2719   1.472       .  S
C1055      C2698   1.473       .  S
H1056      O1057   0.966       .  S
O1057     Ni1065   1.920       .  S
O1057     Ni1059   1.902       .  S
O1057     Ni1064   1.891       .  S
O1058     Ni1059   1.929       .  S
Ni1059     O1063   1.922       .  S
Ni1059     O1061   1.937       .  S
O1060     Ni1065   1.939       .  S
C1062      O1063   1.270       .  A
C1062      C2737   1.472       .  S
O1067     Ni1073   1.920       .  S
O1067      C1088   1.269       .  A
O1068     Ni1091   1.933       .  S
O1068      C1077   1.273       .  A
O1069     Ni1073   1.899       .  S
O1069     Ni1091   1.920       .  S
O1069     Ni1085   1.927       .  S
O1069      H1092   0.967       .  S
C1070      O1087   1.284   1_455  A
C1070      O1079   1.276   1_455  A
C1070      C2701   1.472       .  S
O1071     Ni1090   1.905       .  S
O1071      C1077   1.262       .  A
O1072     Ni1090   1.901       .  S
O1072      C1074   1.264       .  A
Ni1073     O1076   1.915       .  S
Ni1073     O1078   1.900       .  S
C1074      O1084   1.268       .  A
C1074      C3097   1.469       .  S
O1075     Ni1091   1.924       .  S
O1075      C1081   1.276       .  A
O1076      C1081   1.273       .  A
C1077      C2608   1.468       .  S
O1078      C1080   1.270       .  A
O1079     Ni1090   1.905       .  S
C1080      O1086   1.277       .  A
C1080      C2626   1.476       .  S
C1081      C2680   1.473       .  S
H1082      O1083   0.966       .  S
O1083     Ni1091   1.915       .  S
O1083     Ni1085   1.894       .  S
O1083     Ni1090   1.893       .  S
O1084     Ni1085   1.923       .  S
Ni1085     O1089   1.912       .  S
Ni1085     O1087   1.943       .  S
O1086     Ni1091   1.945       .  S
C1088      O1089   1.268       .  A
C1088      C2644   1.464       .  S
O1093     Ni1099   1.929       .  S
O1093      C1114   1.269       .  A
O1094     Ni1117   1.946       .  S
O1094      C1103   1.275       .  A
O1095     Ni1099   1.889       .  S
O1095     Ni1117   1.915       .  S
O1095     Ni1111   1.916       .  S
O1095      H1118   0.966       .  S
C1096      O1113   1.284       .  A
C1096      O1105   1.277       .  A
C1096      C2575   1.473       .  S
O1097     Ni1116   1.907       .  S
O1097      C1103   1.262       .  A
O1098     Ni1116   1.895       .  S
O1098      C1100   1.264       .  A
Ni1099     O1102   1.920       .  S
Ni1099     O1104   1.897       .  S
C1100      O1110   1.269       .  A
C1100      C3007   1.466       .  S
O1101     Ni1117   1.931       .  S
O1101      C1107   1.283       .  A
O1102      C1107   1.278       .  A
C1103      C3691   1.477       .  S
O1104      C1106   1.268       .  A
O1105     Ni1116   1.914       .  S
C1106      O1112   1.274       .  A
C1106      C2590   1.475       .  S
C1107      C2554   1.472       .  S
H1108      O1109   0.966       .  S
O1109     Ni1117   1.922       .  S
O1109     Ni1111   1.902       .  S
O1109     Ni1116   1.892       .  S
O1110     Ni1111   1.928       .  S
Ni1111     O1115   1.925       .  S
Ni1111     O1113   1.936       .  S
O1112     Ni1117   1.939       .  S
C1114      O1115   1.270       .  A
C1114      C2734   1.473       .  S
O1119     Ni1125   1.917       .  S
O1119      C1140   1.268   1_455  A
O1120     Ni1143   1.935       .  S
O1120      C1129   1.274       .  A
O1121     Ni1125   1.890       .  S
O1121     Ni1143   1.917       .  S
O1121     Ni1137   1.927   1_455  S
O1121      H1144   0.966       .  S
C1122      O1139   1.286       .  A
C1122      O1131   1.277       .  A
C1122      C2557   1.474       .  S
O1123     Ni1142   1.904       .  S
O1123      C1129   1.262   1_655  A
O1124     Ni1142   1.898       .  S
O1124      C1126   1.264       .  A
Ni1125     O1128   1.910       .  S
Ni1125     O1130   1.897       .  S
C1126      O1136   1.269       .  A
C1126      C2971   1.469       .  S
O1127     Ni1143   1.937       .  S
O1127      C1133   1.281       .  A
O1128      C1133   1.274       .  A
C1129      C3745   1.468       .  S
O1130      C1132   1.269       .  A
O1131     Ni1142   1.902       .  S
C1132      O1138   1.276       .  A
C1132      C2539   1.475       .  S
C1133      C2572   1.476       .  S
H1134      O1135   0.967       .  S
O1135     Ni1143   1.918   1_655  S
O1135     Ni1137   1.893       .  S
O1135     Ni1142   1.885       .  S
O1136     Ni1137   1.929       .  S
Ni1137     O1141   1.918       .  S
Ni1137     O1139   1.950       .  S
O1138     Ni1143   1.942       .  S
C1140      O1141   1.271       .  A
C1140      C2647   1.469       .  S
O1145     Ni1151   1.922       .  S
O1145      C1166   1.268       .  A
O1146     Ni1169   1.933       .  S
O1146      C1155   1.272   1_545  A
O1147     Ni1151   1.884   1_565  S
O1147     Ni1169   1.908   1_565  S
O1147     Ni1163   1.920       .  S
O1147      H1170   0.965       .  S
C1148      O1165   1.286       .  A
C1148      O1157   1.277       .  A
C1148      C2482   1.477       .  S
O1149     Ni1168   1.905       .  S
O1149      C1155   1.261       .  A
O1150     Ni1168   1.894       .  S
O1150      C1152   1.264       .  A
Ni1151     O1154   1.918       .  S
Ni1151     O1156   1.890       .  S
C1152      O1162   1.269       .  A
C1152      C2899   1.470       .  S
O1153     Ni1169   1.930       .  S
O1153      C1159   1.282       .  A
O1154      C1159   1.278       .  A
C1155      C2467   1.467       .  S
O1156      C1158   1.266       .  A
O1157     Ni1168   1.909       .  S
C1158      O1164   1.274       .  A
C1158      C2716   1.470       .  S
C1159      C2500   1.471       .  S
H1160      O1161   0.966       .  S
O1161     Ni1169   1.921       .  S
O1161     Ni1163   1.901   1_545  S
O1161     Ni1168   1.890   1_545  S
O1162     Ni1163   1.932       .  S
Ni1163     O1167   1.924       .  S
Ni1163     O1165   1.947       .  S
O1164     Ni1169   1.939       .  S
C1166      O1167   1.271   1_545  A
C1166      C2518   1.469       .  S
O1171     Ni1177   1.907       .  S
O1171      C1192   1.265       .  A
O1172     Ni1195   1.934       .  S
O1172      C1181   1.273   1_545  A
O1173     Ni1177   1.889   1_565  S
O1173     Ni1195   1.909   1_565  S
O1173     Ni1189   1.928       .  S
O1173      H1196   0.965       .  S
C1174      O1191   1.283       .  A
C1174      O1183   1.277       .  A
C1174      C2503   1.471       .  S
O1175     Ni1194   1.909       .  S
O1175      C1181   1.263       .  A
O1176     Ni1194   1.898       .  S
O1176      C1178   1.265       .  A
Ni1177     O1180   1.907   1_545  S
Ni1177     O1182   1.898       .  S
C1178      O1188   1.267       .  A
C1178      C2842   1.471       .  S
O1179     Ni1195   1.940   1_565  S
O1179      C1185   1.282       .  A
O1180      C1185   1.275       .  A
C1181      C2428   1.470       .  S
O1182      C1184   1.268       .  A
O1183     Ni1194   1.911   1_545  S
C1184      O1190   1.276       .  A
C1184      C2629   1.477       .  S
C1185      C2485   1.475       .  S
H1186      O1187   0.966       .  S
O1187     Ni1195   1.923       .  S
O1187     Ni1189   1.900   1_545  S
O1187     Ni1194   1.893   1_545  S
O1188     Ni1189   1.926       .  S
Ni1189     O1193   1.919       .  S
Ni1189     O1191   1.936   1_565  S
O1190     Ni1195   1.943       .  S
C1192      O1193   1.268   1_545  A
C1192      C2446   1.463   1_545  S
O1197     Ni1203   1.920       .  S
O1197      C1218   1.266       .  A
O1198     Ni1221   1.940       .  S
O1198      C1207   1.273   1_545  A
O1199     Ni1203   1.888   1_565  S
O1199     Ni1221   1.914   1_565  S
O1199     Ni1215   1.920       .  S
O1199      H1222   0.966       .  S
C1200      O1217   1.282       .  A
C1200      O1209   1.276       .  A
C1200      C2413   1.477       .  S
O1201     Ni1220   1.909       .  S
O1201      C1207   1.263       .  A
O1202     Ni1220   1.896       .  S
O1202      C1204   1.264       .  A
Ni1203     O1206   1.910       .  S
Ni1203     O1208   1.893       .  S
C1204      O1214   1.268       .  A
C1204      C2773   1.466       .  S
O1205     Ni1221   1.939       .  S
O1205      C1211   1.283       .  A
O1206      C1211   1.277       .  A
C1207      C3439   1.476       .  S
O1208      C1210   1.267       .  A
O1209     Ni1220   1.914       .  S
C1210      O1216   1.273       .  A
C1210      C2536   1.472       .  S
C1211      C2392   1.474   1_455  S
H1212      O1213   0.966       .  S
O1213     Ni1221   1.924       .  S
O1213     Ni1215   1.915   1_545  S
O1213     Ni1220   1.896   1_545  S
O1214     Ni1215   1.927       .  S
Ni1215     O1219   1.927       .  S
Ni1215     O1217   1.939       .  S
O1216     Ni1221   1.937       .  S
C1218      O1219   1.270   1_545  A
C1218      C2521   1.471       .  S
O1223     Ni1229   1.907       .  S
O1223      C1244   1.265       .  A
O1224     Ni1247   1.933       .  S
O1224      C1233   1.273   1_545  A
O1225     Ni1229   1.889   1_565  S
O1225     Ni1247   1.909   1_565  S
O1225     Ni1241   1.927   1_565  S
O1225      H1248   0.959       .  S
C1226      O1243   1.285       .  A
C1226      O1235   1.277       .  A
C1226      C2395   1.473       .  S
O1227     Ni1246   1.911       .  S
O1227      C1233   1.264       .  A
O1228     Ni1246   1.895       .  S
O1228      C1230   1.265       .  A
Ni1229     O1232   1.909       .  S
Ni1229     O1234   1.899       .  S
C1230      O1240   1.268       .  A
C1230      C2755   1.465       .  S
O1231     Ni1247   1.942   1_565  S
O1231      C1237   1.284       .  A
O1232      C1237   1.275   1_545  A
C1233      C3403   1.469       .  S
O1234      C1236   1.269       .  A
O1235     Ni1246   1.908   1_545  S
C1236      O1242   1.274       .  A
C1236      C2593   1.478       .  S
C1237      C2410   1.476       .  S
H1238      O1239   0.964       .  S
O1239     Ni1247   1.922       .  S
O1239     Ni1241   1.901       .  S
O1239     Ni1246   1.890   1_545  S
O1240     Ni1241   1.925   1_565  S
Ni1241     O1245   1.923   1_545  S
Ni1241     O1243   1.942       .  S
O1242     Ni1247   1.941       .  S
C1244      O1245   1.271   1_545  A
C1244      C2449   1.465       .  S
O1249     Ni1255   1.907       .  S
O1249      C1270   1.261       .  A
O1250     Ni1273   1.933       .  S
O1250      C1259   1.273       .  A
O1251     Ni1255   1.889       .  S
O1251     Ni1273   1.908       .  S
O1251     Ni1267   1.923       .  S
O1251      H1274   0.966       .  S
C1252      O1269   1.283       .  A
C1252      O1261   1.277       .  A
C1252      C2338   1.475       .  S
O1253     Ni1272   1.922       .  S
O1253      C1259   1.268       .  A
O1254     Ni1272   1.891       .  S
O1254      C1256   1.266       .  A
Ni1255     O1258   1.911       .  S
Ni1255     O1260   1.883       .  S
C1256      O1266   1.272       .  A
C1256      C2356   1.470       .  S
O1257     Ni1273   1.945       .  S
O1257      C1263   1.285       .  A
O1258      C1263   1.277       .  A
C1259      C2374   1.475       .  S
O1260      C1262   1.263       .  A
O1261     Ni1272   1.918       .  S
C1262      O1268   1.269       .  A
C1262      C2305   1.460       .  S
C1263      C2320   1.477   1_455  S
H1264      O1265   0.966       .  S
O1265     Ni1273   1.919       .  S
O1265     Ni1267   1.916       .  S
O1265     Ni1272   1.888       .  S
O1266     Ni1267   1.935       .  S
Ni1267     O1271   1.945       .  S
Ni1267     O1269   1.934       .  S
O1268     Ni1273   1.928       .  S
C1270      O1271   1.274       .  A
C1270      C5023   1.476       .  S
O1275     Ni1281   1.901       .  S
O1275      C1296   1.260       .  A
O1276     Ni1299   1.914       .  S
O1276      C1285   1.270       .  A
O1277     Ni1281   1.890       .  S
O1277     Ni1299   1.898       .  S
O1277     Ni1293   1.926       .  S
O1277      H1300   0.966       .  S
C1278      O1295   1.282       .  A
C1278      O1287   1.276       .  A
C1278      C2323   1.476       .  S
O1279     Ni1298   1.920       .  S
O1279      C1285   1.270       .  A
O1280     Ni1298   1.899       .  S
O1280      C1282   1.269       .  A
Ni1281     O1284   1.907       .  S
Ni1281     O1286   1.890       .  S
C1282      O1292   1.277       .  A
C1282      C2269   1.475       .  S
O1283     Ni1299   1.948       .  S
O1283      C1289   1.286       .  A
O1284      C1289   1.277       .  A
C1285      C2284   1.467       .  S
O1286      C1288   1.263       .  A
O1287     Ni1298   1.915       .  S
C1288      O1294   1.269       .  A
C1288      C2248   1.470       .  S
C1289      C2341   1.477       .  S
H1290      O1291   0.965       .  S
O1291     Ni1299   1.931       .  S
O1291     Ni1293   1.911       .  S
O1291     Ni1298   1.890       .  S
O1292     Ni1293   1.941       .  S
Ni1293     O1297   1.942       .  S
Ni1293     O1295   1.937       .  S
O1294     Ni1299   1.934       .  S
C1296      O1297   1.275       .  A
C1296      C4951   1.475       .  S
O1301     Ni1307   1.904       .  S
O1301      C1322   1.260   1_455  A
O1302     Ni1325   1.921       .  S
O1302      C1311   1.270       .  A
O1303     Ni1307   1.890       .  S
O1303     Ni1325   1.901       .  S
O1303     Ni1319   1.923   1_455  S
O1303      H1326   0.967       .  S
C1304      O1321   1.283       .  A
C1304      O1313   1.277       .  A
C1304      C2194   1.475       .  S
O1305     Ni1324   1.929   1_455  S
O1305      C1311   1.270       .  A
O1306     Ni1324   1.896       .  S
O1306      C1308   1.268       .  A
Ni1307     O1310   1.912       .  S
Ni1307     O1312   1.890       .  S
C1308      O1318   1.272       .  A
C1308      C2230   1.470       .  S
O1309     Ni1325   1.939       .  S
O1309      C1315   1.285       .  A
O1310      C1315   1.277       .  A
C1311      C2377   1.473       .  S
O1312      C1314   1.263       .  A
O1313     Ni1324   1.919       .  S
C1314      O1320   1.267       .  A
C1314      C2176   1.465       .  S
C1315      C2212   1.472       .  S
H1316      O1317   0.963       .  S
O1317     Ni1325   1.920   1_655  S
O1317     Ni1319   1.917       .  S
O1317     Ni1324   1.891       .  S
O1318     Ni1319   1.935       .  S
Ni1319     O1323   1.944       .  S
Ni1319     O1321   1.936       .  S
O1320     Ni1325   1.928       .  S
C1322      O1323   1.275       .  A
C1322      C3079   1.474       .  S
O1327     Ni1333   1.896       .  S
O1327      C1348   1.260       .  A
O1328     Ni1351   1.914       .  S
O1328      C1337   1.270       .  A
O1329     Ni1333   1.888       .  S
O1329     Ni1351   1.899       .  S
O1329     Ni1345   1.923       .  S
O1329      H1352   0.965       .  S
C1330      O1347   1.279       .  A
C1330      O1339   1.274       .  A
C1330      C2215   1.474       .  S
O1331     Ni1350   1.920       .  S
O1331      C1337   1.270       .  A
O1332     Ni1350   1.906       .  S
O1332      C1334   1.271       .  A
Ni1333     O1336   1.900       .  S
Ni1333     O1338   1.893       .  S
C1334      O1344   1.276       .  A
C1334      C2161   1.478       .  S
O1335     Ni1351   1.951       .  S
O1335      C1341   1.287       .  A
O1336      C1341   1.276       .  A
C1337      C2287   1.467       .  S
O1338      C1340   1.263       .  A
O1339     Ni1350   1.910       .  S
C1340      O1346   1.267       .  A
C1340      C2140   1.468       .  S
C1341      C2197   1.476       .  S
H1342      O1343   0.965       .  S
O1343     Ni1351   1.931       .  S
O1343     Ni1345   1.920       .  S
O1343     Ni1350   1.893       .  S
O1344     Ni1345   1.939       .  S
Ni1345     O1349   1.944       .  S
Ni1345     O1347   1.935       .  S
O1346     Ni1351   1.928       .  S
C1348      O1349   1.272       .  A
C1348      C3148   1.476       .  S
O1353     Ni1359   1.907       .  S
O1353      C1374   1.263       .  A
O1354     Ni1377   1.923       .  S
O1354      C1363   1.270       .  A
O1355     Ni1359   1.888       .  S
O1355     Ni1377   1.899       .  S
O1355     Ni1371   1.925       .  S
O1355      H1378   0.966       .  S
C1356      O1373   1.285       .  A
C1356      O1365   1.277       .  A
C1356      C2107   1.469       .  S
O1357     Ni1376   1.918       .  S
O1357      C1363   1.268       .  A
O1358     Ni1376   1.896       .  S
O1358      C1360   1.267       .  A
Ni1359     O1362   1.912       .  S
Ni1359     O1364   1.897       .  S
C1360      O1370   1.273       .  A
C1360      C2359   1.471       .  S
O1361     Ni1377   1.942       .  S
O1361      C1367   1.285       .  A
O1362      C1367   1.277       .  A
C1363      C2122   1.468       .  S
O1364      C1366   1.265       .  A
O1365     Ni1376   1.910       .  S
C1366      O1372   1.268       .  A
C1366      C2071   1.466       .  S
C1367      C2086   1.475       .  S
H1368      O1369   0.965       .  S
O1369     Ni1377   1.916       .  S
O1369     Ni1371   1.901       .  S
O1369     Ni1376   1.881       .  S
O1370     Ni1371   1.935       .  S
Ni1371     O1375   1.935       .  S
Ni1371     O1373   1.937       .  S
O1372     Ni1377   1.923       .  S
C1374      O1375   1.273       .  A
C1374      C4465   1.470       .  S
O1379     Ni1385   1.905       .  S
O1379      C1400   1.261       .  A
O1380     Ni1403   1.916       .  S
O1380      C1389   1.267       .  A
O1381     Ni1385   1.890       .  S
O1381     Ni1403   1.901       .  S
O1381     Ni1397   1.917       .  S
O1381      H1404   0.962       .  S
C1382      O1399   1.280       .  A
C1382      O1391   1.277       .  A
C1382      C2089   1.472       .  S
O1383     Ni1402   1.926       .  S
O1383      C1389   1.270       .  A
O1384     Ni1402   1.902       .  S
O1384      C1386   1.268       .  A
Ni1385     O1388   1.905       .  S
Ni1385     O1390   1.889       .  S
C1386      O1396   1.273       .  A
C1386      C2266   1.474       .  S
O1387     Ni1403   1.936       .  S
O1387      C1393   1.283       .  A
O1388      C1393   1.276       .  A
C1389      C2050   1.465       .  S
O1390      C1392   1.263       .  A
O1391     Ni1402   1.921       .  S
C1392      O1398   1.267       .  A
C1392      C2035   1.459       .  S
C1393      C2104   1.467       .  S
H1394      O1395   0.950       .  S
O1395     Ni1403   1.916       .  S
O1395     Ni1397   1.914       .  S
O1395     Ni1402   1.893       .  S
O1396     Ni1397   1.937       .  S
Ni1397     O1401   1.934       .  S
Ni1397     O1399   1.926       .  S
O1398     Ni1403   1.923       .  S
C1400      O1401   1.273       .  A
C1400      C4411   1.469       .  S
O1405     Ni1411   1.906       .  S
O1405      C1426   1.262       .  A
O1406     Ni1429   1.927       .  S
O1406      C1415   1.271       .  A
O1407     Ni1411   1.888       .  S
O1407     Ni1429   1.903       .  S
O1407     Ni1423   1.918       .  S
O1407      H1430   0.967       .  S
C1408      O1425   1.280       .  A
C1408      O1417   1.278       .  A
C1408      C1996   1.473       .  S
O1409     Ni1428   1.925       .  S
O1409      C1415   1.269       .  A
O1410     Ni1428   1.896       .  S
O1410      C1412   1.266       .  A
Ni1411     O1414   1.905       .  S
Ni1411     O1416   1.891       .  S
C1412      O1422   1.273       .  A
C1412      C2158   1.476       .  S
O1413     Ni1429   1.942       .  S
O1413      C1419   1.284       .  A
O1414      C1419   1.276       .  A
C1415      C2125   1.472       .  S
O1416      C1418   1.264       .  A
O1417     Ni1428   1.922       .  S
C1418      O1424   1.271       .  A
C1418      C1978   1.470       .  S
C1419      C2014   1.470       .  S
H1420      O1421   0.966       .  S
O1421     Ni1429   1.915       .  S
O1421     Ni1423   1.915       .  S
O1421     Ni1428   1.891       .  S
O1422     Ni1423   1.942       .  S
Ni1423     O1427   1.934       .  S
Ni1423     O1425   1.926       .  S
O1424     Ni1429   1.936       .  S
C1426      O1427   1.272       .  A
C1426      C2665   1.470       .  S
O1431     Ni1437   1.905       .  S
O1431      C1452   1.261       .  A
O1432     Ni1455   1.922       .  S
O1432      C1441   1.270       .  A
O1433     Ni1437   1.888       .  S
O1433     Ni1455   1.900       .  S
O1433     Ni1449   1.923       .  S
O1433      H1456   0.966       .  S
C1434      O1451   1.283       .  A
C1434      O1443   1.278       .  A
C1434      C2017   1.470   1_655  S
O1435     Ni1454   1.916       .  S
O1435      C1441   1.268       .  A
O1436     Ni1454   1.897       .  S
O1436      C1438   1.267       .  A
Ni1437     O1440   1.911       .  S
Ni1437     O1442   1.886       .  S
C1438      O1448   1.271       .  A
C1438      C2233   1.471       .  S
O1439     Ni1455   1.937       .  S
O1439      C1445   1.285       .  A
O1440      C1445   1.277       .  A
C1441      C2053   1.467       .  S
O1442      C1444   1.263       .  A
O1443     Ni1454   1.915       .  S
C1444      O1450   1.267       .  A
C1444      C1963   1.461       .  S
C1445      C1999   1.472       .  S
H1446      O1447   0.966       .  S
O1447     Ni1455   1.920       .  S
O1447     Ni1449   1.900       .  S
O1447     Ni1454   1.883       .  S
O1448     Ni1449   1.932       .  S
Ni1449     O1453   1.930       .  S
Ni1449     O1451   1.932       .  S
O1450     Ni1455   1.924       .  S
C1452      O1453   1.270       .  A
C1452      C2611   1.466       .  S
O1457     Ni1463   1.904       .  S
O1457      C1478   1.261       .  A
O1458     Ni1481   1.925       .  S
O1458      C1467   1.269   1_545  A
O1459     Ni1463   1.892   1_565  S
O1459     Ni1481   1.905   1_565  S
O1459     Ni1475   1.922       .  S
O1459      H1482   0.966       .  S
C1460      O1477   1.284       .  A
C1460      O1469   1.277       .  A
C1460      C1891   1.470       .  S
O1461     Ni1480   1.916       .  S
O1461      C1467   1.265       .  A
O1462     Ni1480   1.890       .  S
O1462      C1464   1.265       .  A
Ni1463     O1466   1.912       .  S
Ni1463     O1468   1.891       .  S
C1464      O1474   1.275       .  A
C1464      C1924   1.472       .  S
O1465     Ni1481   1.933   1_565  S
O1465      C1471   1.283   1_565  A
O1466      C1471   1.277       .  A
C1467      C1945   1.466       .  S
O1468      C1470   1.262       .  A
O1469     Ni1480   1.910       .  S
C1470      O1476   1.268       .  A
C1470      C2068   1.465       .  S
C1471      C1906   1.469   1_545  S
H1472      O1473   0.966       .  S
O1473     Ni1481   1.917       .  S
O1473     Ni1475   1.911   1_545  S
O1473     Ni1480   1.885   1_545  S
O1474     Ni1475   1.943       .  S
Ni1475     O1479   1.949       .  S
Ni1475     O1477   1.936       .  S
O1476     Ni1481   1.928       .  S
C1478      O1479   1.275   1_545  A
C1478      C4228   1.477       .  S
O1483     Ni1489   1.903       .  S
O1483      C1504   1.260       .  A
O1484     Ni1507   1.918       .  S
O1484      C1493   1.268   1_545  A
O1485     Ni1489   1.886   1_565  S
O1485     Ni1507   1.894   1_565  S
O1485     Ni1501   1.919       .  S
O1485      H1508   0.967       .  S
C1486      O1503   1.280       .  A
C1486      O1495   1.277       .  A
C1486      C1909   1.467   1_655  S
O1487     Ni1506   1.919       .  S
O1487      C1493   1.268       .  A
O1488     Ni1506   1.892       .  S
O1488      C1490   1.266       .  A
Ni1489     O1492   1.909   1_545  S
Ni1489     O1494   1.888       .  S
C1490      O1500   1.277       .  A
C1490      C1852   1.478       .  S
O1491     Ni1507   1.937   1_565  S
O1491      C1497   1.284       .  A
O1492      C1497   1.278       .  A
C1493      C1870   1.464       .  S
O1494      C1496   1.262       .  A
O1495     Ni1506   1.918       .  S
C1496      O1502   1.267       .  A
C1496      C2032   1.462       .  S
C1497      C1888   1.470       .  S
H1498      O1499   0.967       .  S
O1499     Ni1507   1.917       .  S
O1499     Ni1501   1.908   1_545  S
O1499     Ni1506   1.883   1_545  S
O1500     Ni1501   1.950       .  S
Ni1501     O1505   1.939       .  S
Ni1501     O1503   1.922       .  S
O1502     Ni1507   1.924       .  S
C1504      O1505   1.274   1_545  A
C1504      C4195   1.470       .  S
O1509     Ni1515   1.905       .  S
O1509      C1530   1.261   1_545  A
O1510     Ni1533   1.915   1_545  S
O1510      C1519   1.267   1_545  A
O1511     Ni1515   1.892   1_565  S
O1511     Ni1533   1.902       .  S
O1511     Ni1527   1.924       .  S
O1511      H1534   0.961       .  S
C1512      O1529   1.284       .  A
C1512      O1521   1.277       .  A
C1512      C1816   1.473       .  S
O1513     Ni1532   1.924       .  S
O1513      C1519   1.269       .  A
O1514     Ni1532   1.894       .  S
O1514      C1516   1.267       .  A
Ni1515     O1518   1.915   1_545  S
Ni1515     O1520   1.894       .  S
C1516      O1526   1.274       .  A
C1516      C1837   1.472       .  S
O1517     Ni1533   1.936       .  S
O1517      C1523   1.283       .  A
O1518      C1523   1.277       .  A
C1519      C1942   1.465       .  S
O1520      C1522   1.263       .  A
O1521     Ni1532   1.913       .  S
C1522      O1528   1.266       .  A
C1522      C1981   1.461       .  S
C1523      C1798   1.473       .  S
H1524      O1525   0.966   1_545  S
O1525     Ni1533   1.915       .  S
O1525     Ni1527   1.908       .  S
O1525     Ni1532   1.885       .  S
O1526     Ni1527   1.937       .  S
Ni1527     O1531   1.940       .  S
Ni1527     O1529   1.938       .  S
O1528     Ni1533   1.920   1_545  S
C1530      O1531   1.274       .  A
C1530      C2464   1.469       .  S
O1535     Ni1541   1.905       .  S
O1535      C1556   1.262       .  A
O1536     Ni1559   1.909   1_545  S
O1536      C1545   1.266   1_545  A
O1537     Ni1541   1.886   1_565  S
O1537     Ni1559   1.898       .  S
O1537     Ni1553   1.921       .  S
O1537      H1560   0.966       .  S
C1538      O1555   1.283       .  A
C1538      O1547   1.277       .  A
C1538      C1801   1.472   1_565  S
O1539     Ni1558   1.922       .  S
O1539      C1545   1.269       .  A
O1540     Ni1558   1.898       .  S
O1540      C1542   1.269       .  A
Ni1541     O1544   1.905   1_545  S
Ni1541     O1546   1.891       .  S
C1542      O1552   1.273       .  A
C1542      C1783   1.474       .  S
O1543     Ni1559   1.943       .  S
O1543      C1549   1.284       .  A
O1544      C1549   1.277       .  A
C1545      C1873   1.457       .  S
O1546      C1548   1.263       .  A
O1547     Ni1558   1.915       .  S
C1548      O1554   1.266       .  A
C1548      C1960   1.461       .  S
C1549      C1819   1.472       .  S
H1550      O1551   0.966       .  S
O1551     Ni1559   1.918   1_545  S
O1551     Ni1553   1.904   1_545  S
O1551     Ni1558   1.883   1_545  S
O1552     Ni1553   1.935       .  S
Ni1553     O1557   1.933       .  S
Ni1553     O1555   1.934       .  S
O1554     Ni1559   1.921   1_545  S
C1556      O1557   1.273   1_545  A
C1556      C2431   1.469       .  S
O1561     Ni1567   1.903       .  S
O1561      C1582   1.261   1_455  A
O1562     Ni1585   1.926       .  S
O1562      C1571   1.272       .  A
O1563     Ni1567   1.894       .  S
O1563     Ni1585   1.899       .  S
O1563     Ni1579   1.924   1_455  S
O1563      H1586   0.965       .  S
C1564      O1581   1.280       .  A
C1564      O1573   1.275       .  A
C1564      C1726   1.472       .  S
O1565     Ni1584   1.915   1_455  S
O1565      C1571   1.269       .  A
O1566     Ni1584   1.906       .  S
O1566      C1568   1.271       .  A
Ni1567     O1570   1.906       .  S
Ni1567     O1572   1.896       .  S
C1568      O1578   1.277       .  A
C1568      C1855   1.479       .  S
O1569     Ni1585   1.945       .  S
O1569      C1575   1.287       .  A
O1570      C1575   1.277       .  A
C1571      C1762   1.476       .  S
O1572      C1574   1.264       .  A
O1573     Ni1584   1.911       .  S
C1574      O1580   1.266       .  A
C1574      C2302   1.461       .  S
C1575      C1747   1.473       .  S
H1576      O1577   0.966       .  S
O1577     Ni1585   1.928   1_655  S
O1577     Ni1579   1.913       .  S
O1577     Ni1584   1.893       .  S
O1578     Ni1579   1.942       .  S
Ni1579     O1583   1.942       .  S
Ni1579     O1581   1.932       .  S
O1580     Ni1585   1.917       .  S
C1582      O1583   1.274       .  A
C1582      C4663   1.475       .  S
O1587     Ni1593   1.904       .  S
O1587      C1608   1.260       .  A
O1588     Ni1611   1.927       .  S
O1588      C1597   1.272       .  A
O1589     Ni1593   1.893       .  S
O1589     Ni1611   1.908       .  S
O1589     Ni1605   1.922       .  S
O1589      H1612   0.966       .  S
C1590      O1607   1.282       .  A
C1590      O1599   1.279       .  A
C1590      C1744   1.474       .  S
O1591     Ni1610   1.925       .  S
O1591      C1597   1.270       .  A
O1592     Ni1610   1.897       .  S
O1592      C1594   1.268       .  A
Ni1593     O1596   1.909       .  S
Ni1593     O1598   1.891       .  S
C1594      O1604   1.275       .  A
C1594      C1927   1.475       .  S
O1595     Ni1611   1.944       .  S
O1595      C1601   1.285       .  A
O1596      C1601   1.277       .  A
C1597      C1708   1.474       .  S
O1598      C1600   1.264       .  A
O1599     Ni1610   1.916       .  S
C1600      O1606   1.267       .  A
C1600      C2251   1.464       .  S
C1601      C1729   1.475       .  S
H1602      O1603   0.962       .  S
O1603     Ni1611   1.922       .  S
O1603     Ni1605   1.908       .  S
O1603     Ni1610   1.884       .  S
O1604     Ni1605   1.939       .  S
Ni1605     O1609   1.937       .  S
Ni1605     O1607   1.935       .  S
O1606     Ni1611   1.925       .  S
C1608      O1609   1.272       .  A
C1608      C4717   1.470       .  S
O1613     Ni1619   1.910       .  S
O1613      C1634   1.262       .  A
O1614     Ni1637   1.919       .  S
O1614      C1623   1.269       .  A
O1615     Ni1619   1.898       .  S
O1615     Ni1637   1.906       .  S
O1615     Ni1631   1.915       .  S
O1615      H1638   0.965       .  S
C1616      O1633   1.276       .  A
C1616      O1625   1.273       .  A
C1616      C1693   1.468       .  S
O1617     Ni1636   1.922       .  S
O1617      C1623   1.269       .  A
O1618     Ni1636   1.901       .  S
O1618      C1620   1.270       .  A
Ni1619     O1622   1.912       .  S
Ni1619     O1624   1.893       .  S
C1620      O1630   1.275       .  A
C1620      C1834   1.471       .  S
O1621     Ni1637   1.941       .  S
O1621      C1627   1.284       .  A
O1622      C1627   1.276       .  A
C1623      C1765   1.473       .  S
O1624      C1626   1.264       .  A
O1625     Ni1636   1.910       .  S
C1626      O1632   1.266       .  A
C1626      C2179   1.469       .  S
C1627      C1672   1.476   1_455  S
H1628      O1629   0.964       .  S
O1629     Ni1637   1.928       .  S
O1629     Ni1631   1.926       .  S
O1629     Ni1636   1.899       .  S
O1630     Ni1631   1.934       .  S
Ni1631     O1635   1.940       .  S
Ni1631     O1633   1.923       .  S
O1632     Ni1637   1.926       .  S
C1634      O1635   1.271       .  A
C1634      C2878   1.475       .  S
O1639     Ni1645   1.905       .  S
O1639      C1660   1.261       .  A
O1640     Ni1663   1.927       .  S
O1640      C1649   1.270       .  A
O1641     Ni1645   1.896       .  S
O1641     Ni1663   1.905       .  S
O1641     Ni1657   1.919       .  S
O1641      H1664   0.966       .  S
C1642      O1659   1.280       .  A
C1642      O1651   1.277       .  A
C1642      C1675   1.476       .  S
O1643     Ni1662   1.931       .  S
O1643      C1649   1.271       .  A
O1644     Ni1662   1.893       .  S
O1644      C1646   1.267       .  A
Ni1645     O1648   1.909       .  S
Ni1645     O1650   1.898       .  S
C1646      O1656   1.274       .  A
C1646      C1780   1.473       .  S
O1647     Ni1663   1.939       .  S
O1647      C1653   1.284       .  A
O1648      C1653   1.276       .  A
C1649      C1711   1.476       .  S
O1650      C1652   1.265       .  A
O1651     Ni1662   1.924       .  S
C1652      O1658   1.266       .  A
C1652      C2143   1.465       .  S
C1653      C1690   1.470       .  S
H1654      O1655   0.965       .  S
O1655     Ni1663   1.921       .  S
O1655     Ni1657   1.919       .  S
O1655     Ni1662   1.892       .  S
O1656     Ni1657   1.941       .  S
Ni1657     O1661   1.937       .  S
Ni1657     O1659   1.928       .  S
O1658     Ni1663   1.923       .  S
C1660      O1661   1.272       .  A
C1660      C2824   1.471       .  S
C1665      C1670   1.384       .  A
C1665      C1666   1.405       .  A
C1665      N1671   1.341       .  A
C1666      C1667   1.402       .  A
C1666      H1677   1.082       .  S
C1667      C1676   1.382       .  A
C1667      C1668   1.384       .  A
C1668      C1669   1.406       .  A
C1668      N1674   1.342       .  A
C1669      C1670   1.403       .  A
C1669      H1678   1.082       .  S
C1670      C1673   1.384       .  A
N1671      C1672   1.358       .  A
N1671      H1681   1.045       .  S
C1672      C1673   1.396       .  A
C1673      H1679   1.082       .  S
N1674      C1675   1.358       .  A
N1674      H1682   1.045       .  S
C1675      C1676   1.396       .  A
C1676      H1680   1.082       .  S
C1683      C1688   1.385       .  A
C1683      C1684   1.399       .  A
C1683      N1689   1.344       .  A
C1684      C1685   1.400       .  A
C1684      H1695   1.082       .  S
C1685      C1694   1.369       .  A
C1685      C1686   1.385       .  A
C1686      C1687   1.403       .  A
C1686      N1692   1.347       .  A
C1687      C1688   1.405       .  A
C1687      H1696   1.082       .  S
C1688      C1691   1.375       .  A
N1689      C1690   1.353       .  A
N1689      H1699   1.045       .  S
C1690      C1691   1.398       .  A
C1691      H1697   1.083       .  S
N1692      C1693   1.356       .  A
N1692      H1700   1.045       .  S
C1693      C1694   1.394       .  A
C1694      H1698   1.083       .  S
C1701      C1706   1.384       .  A
C1701      C1702   1.400       .  A
C1701      N1707   1.342       .  A
C1702      C1703   1.400       .  A
C1702      H1713   1.082       .  S
C1703      C1712   1.374       .  A
C1703      C1704   1.384       .  A
C1704      C1705   1.411       .  A
C1704      N1710   1.351       .  A
C1705      C1706   1.411       .  A
C1705      H1714   1.082       .  S
C1706      C1709   1.387       .  A
N1707      C1708   1.354       .  A
N1707      H1717   1.045       .  S
C1708      C1709   1.399       .  A
C1709      H1715   1.082       .  S
N1710      C1711   1.360       .  A
N1710      H1718   1.045       .  S
C1711      C1712   1.393       .  A
C1712      H1716   1.083       .  S
C1719      C1724   1.385       .  A
C1719      C1720   1.402       .  A
C1719      N1725   1.347       .  A
C1720      C1721   1.404       .  A
C1720      H1731   1.082       .  S
C1721      C1730   1.372       .  A
C1721      C1722   1.385       .  A
C1722      C1723   1.402       .  A
C1722      N1728   1.348       .  A
C1723      C1724   1.404       .  A
C1723      H1732   1.082       .  S
C1724      C1727   1.372       .  A
N1725      C1726   1.355       .  A
N1725      H1735   1.045       .  S
C1726      C1727   1.397       .  A
C1727      H1733   1.083       .  S
N1728      C1729   1.355       .  A
N1728      H1736   1.045       .  S
C1729      C1730   1.398       .  A
C1730      H1734   1.083       .  S
C1737      C1742   1.384       .  A
C1737      C1738   1.406       .  A
C1737      N1743   1.348       .  A
C1738      C1739   1.407       .  A
C1738      H1749   1.082       .  S
C1739      C1748   1.377       .  A
C1739      C1740   1.385       .  A
C1740      C1741   1.399       .  A
C1740      N1746   1.344       .  A
C1741      C1742   1.400       .  A
C1741      H1750   1.082       .  S
C1742      C1745   1.371       .  A
N1743      C1744   1.358       .  A
N1743      H1753   1.045       .  S
C1744      C1745   1.395       .  A
C1745      H1751   1.083       .  S
N1746      C1747   1.353       .  A
N1746      H1754   1.045       .  S
C1747      C1748   1.400       .  A
C1748      H1752   1.083       .  S
C1755      C1760   1.384       .  A
C1755      C1756   1.407       .  A
C1755      N1761   1.343       .  A
C1756      C1757   1.405       .  A
C1756      H1767   1.082   1_455  S
C1757      C1766   1.385       .  A
C1757      C1758   1.384       .  A
C1758      C1759   1.406       .  A
C1758      N1764   1.342       .  A
C1759      C1760   1.403       .  A
C1759      H1768   1.082       .  S
C1760      C1763   1.384       .  A
N1761      C1762   1.357       .  A
N1761      H1771   1.045   1_455  S
C1762      C1763   1.395       .  A
C1763      H1769   1.082       .  S
N1764      C1765   1.356       .  A
N1764      H1772   1.045       .  S
C1765      C1766   1.396       .  A
C1766      H1770   1.082       .  S
C1773      C1778   1.384       .  A
C1773      C1774   1.395       .  A
C1773      N1779   1.335       .  A
C1774      C1775   1.393       .  A
C1774      H1785   1.083       .  S
C1775      C1784   1.366       .  A
C1775      C1776   1.383       .  A
C1776      C1777   1.413       .  A
C1776      N1782   1.351       .  A
C1777      C1778   1.413       .  A
C1777      H1786   1.082       .  S
C1778      C1781   1.390       .  A
N1779      C1780   1.352       .  A
N1779      H1789   1.045       .  S
C1780      C1781   1.402       .  A
C1781      H1787   1.082       .  S
N1782      C1783   1.360       .  A
N1782      H1790   1.044       .  S
C1783      C1784   1.391       .  A
C1784      H1788   1.083       .  S
C1791      C1796   1.384   1_565  A
C1791      C1792   1.404       .  A
C1791      N1797   1.341       .  A
C1792      C1793   1.402   1_565  A
C1792      H1803   1.082       .  S
C1793      C1802   1.381   1_545  A
C1793      C1794   1.384       .  A
C1794      C1795   1.405       .  A
C1794      N1800   1.341       .  A
C1795      C1796   1.402       .  A
C1795      H1804   1.082       .  S
C1796      C1799   1.382       .  A
N1797      C1798   1.357       .  A
N1797      H1807   1.045       .  S
C1798      C1799   1.396   1_565  A
C1799      H1805   1.082       .  S
N1800      C1801   1.357       .  A
N1800      H1808   1.045       .  S
C1801      C1802   1.395   1_545  A
C1802      H1806   1.082       .  S
C1809      C1814   1.385       .  A
C1809      C1810   1.399       .  A
C1809      N1815   1.346       .  A
C1810      C1811   1.401   1_455  A
C1810      H1821   1.082       .  S
C1811      C1820   1.369       .  A
C1811      C1812   1.385       .  A
C1812      C1813   1.403   1_655  A
C1812      N1818   1.348       .  A
C1813      C1814   1.405       .  A
C1813      H1822   1.082       .  S
C1814      C1817   1.373       .  A
N1815      C1816   1.354       .  A
N1815      H1825   1.045       .  S
C1816      C1817   1.398       .  A
C1817      H1823   1.083       .  S
N1818      C1819   1.356       .  A
N1818      H1826   1.045       .  S
C1819      C1820   1.395       .  A
C1820      H1824   1.083       .  S
C1827      C1832   1.384       .  A
C1827      C1828   1.395       .  A
C1827      N1833   1.336       .  A
C1828      C1829   1.394       .  A
C1828      H1839   1.083       .  S
C1829      C1838   1.366       .  A
C1829      C1830   1.384       .  A
C1830      C1831   1.410       .  A
C1830      N1836   1.350       .  A
C1831      C1832   1.410       .  A
C1831      H1840   1.082       .  S
C1832      C1835   1.386       .  A
N1833      C1834   1.352       .  A
N1833      H1843   1.045       .  S
C1834      C1835   1.401       .  A
C1835      H1841   1.082       .  S
N1836      C1837   1.359       .  A
N1836      H1844   1.044       .  S
C1837      C1838   1.392       .  A
C1838      H1842   1.083       .  S
C1845      C1850   1.384       .  A
C1845      C1846   1.411       .  A
C1845      N1851   1.351       .  A
C1846      C1847   1.411       .  A
C1846      H1857   1.082       .  S
C1847      C1856   1.388       .  A
C1847      C1848   1.384       .  A
C1848      C1849   1.400       .  A
C1848      N1854   1.341       .  A
C1849      C1850   1.399       .  A
C1849      H1858   1.083       .  S
C1850      C1853   1.372       .  A
N1851      C1852   1.359       .  A
N1851      H1861   1.044       .  S
C1852      C1853   1.395       .  A
C1853      H1859   1.083       .  S
N1854      C1855   1.356       .  A
N1854      H1862   1.045       .  S
C1855      C1856   1.400       .  A
C1856      H1860   1.082       .  S
C1863      C1868   1.385   1_565  A
C1863      C1864   1.397       .  A
C1863      N1869   1.335       .  A
C1864      C1865   1.394       .  A
C1864      H1875   1.083       .  S
C1865      C1874   1.371       .  A
C1865      C1866   1.384   1_565  A
C1866      C1867   1.407       .  A
C1866      N1872   1.344       .  A
C1867      C1868   1.406       .  A
C1867      H1876   1.082       .  S
C1868      C1871   1.385       .  A
N1869      C1870   1.352       .  A
N1869      H1879   1.045       .  S
C1870      C1871   1.397   1_565  A
C1871      H1877   1.082       .  S
N1872      C1873   1.356   1_545  A
N1872      H1880   1.045       .  S
C1873      C1874   1.388       .  A
C1874      H1878   1.083       .  S
C1881      C1886   1.384       .  A
C1881      C1882   1.404       .  A
C1881      N1887   1.340       .  A
C1882      C1883   1.401       .  A
C1882      H1893   1.082   1_565  S
C1883      C1892   1.382       .  A
C1883      C1884   1.384       .  A
C1884      C1885   1.403       .  A
C1884      N1890   1.339       .  A
C1885      C1886   1.400       .  A
C1885      H1894   1.082       .  S
C1886      C1889   1.380       .  A
N1887      C1888   1.356       .  A
N1887      H1897   1.045   1_565  S
C1888      C1889   1.395       .  A
C1889      H1895   1.082       .  S
N1890      C1891   1.357       .  A
N1890      H1898   1.045       .  S
C1891      C1892   1.395       .  A
C1892      H1896   1.082   1_565  S
C1899      C1904   1.384       .  A
C1899      C1900   1.402       .  A
C1899      N1905   1.339       .  A
C1900      C1901   1.399       .  A
C1900      H1911   1.082       .  S
C1901      C1910   1.378       .  A
C1901      C1902   1.384       .  A
C1902      C1903   1.403       .  A
C1902      N1908   1.340       .  A
C1903      C1904   1.401       .  A
C1903      H1912   1.082       .  S
C1904      C1907   1.380       .  A
N1905      C1906   1.356       .  A
N1905      H1915   1.045       .  S
C1906      C1907   1.395       .  A
C1907      H1913   1.082       .  S
N1908      C1909   1.356       .  A
N1908      H1916   1.045       .  S
C1909      C1910   1.394       .  A
C1910      H1914   1.082       .  S
C1917      C1922   1.384       .  A
C1917      C1918   1.398       .  A
C1917      N1923   1.337       .  A
C1918      C1919   1.396       .  A
C1918      H1929   1.083       .  S
C1919      C1928   1.369       .  A
C1919      C1920   1.384       .  A
C1920      C1921   1.410       .  A
C1920      N1926   1.350       .  A
C1921      C1922   1.410       .  A
C1921      H1930   1.082       .  S
C1922      C1925   1.388       .  A
N1923      C1924   1.354       .  A
N1923      H1933   1.045       .  S
C1924      C1925   1.399       .  A
C1925      H1931   1.082       .  S
N1926      C1927   1.359       .  A
N1926      H1934   1.044       .  S
C1927      C1928   1.394       .  A
C1928      H1932   1.083       .  S
C1935      C1940   1.385   1_545  A
C1935      C1936   1.409       .  A
C1935      N1941   1.347       .  A
C1936      C1937   1.408       .  A
C1936      H1947   1.082       .  S
C1937      C1946   1.385       .  A
C1937      C1938   1.384   1_545  A
C1938      C1939   1.397       .  A
C1938      N1944   1.337       .  A
C1939      C1940   1.396       .  A
C1939      H1948   1.083       .  S
C1940      C1943   1.371       .  A
N1941      C1942   1.357   1_545  A
N1941      H1951   1.045       .  S
C1942      C1943   1.391       .  A
C1943      H1949   1.083       .  S
N1944      C1945   1.353       .  A
N1944      H1952   1.045       .  S
C1945      C1946   1.398   1_565  A
C1946      H1950   1.082       .  S
C1953      C1958   1.385       .  A
C1953      C1954   1.391       .  A
C1953      N1959   1.333       .  A
C1954      C1955   1.390       .  A
C1954      H1965   1.083       .  S
C1955      C1964   1.362       .  A
C1955      C1956   1.385       .  A
C1956      C1957   1.407       .  A
C1956      N1962   1.347       .  A
C1957      C1958   1.407       .  A
C1957      H1966   1.082       .  S
C1958      C1961   1.383       .  A
N1959      C1960   1.350       .  A
N1959      H1969   1.045       .  S
C1960      C1961   1.398       .  A
C1961      H1967   1.082       .  S
N1962      C1963   1.357       .  A
N1962      H1970   1.045       .  S
C1963      C1964   1.388       .  A
C1964      H1968   1.083       .  S
C1971      C1976   1.384       .  A
C1971      C1972   1.407       .  A
C1971      N1977   1.348       .  A
C1972      C1973   1.406       .  A
C1972      H1983   1.082       .  S
C1973      C1982   1.382       .  A
C1973      C1974   1.386       .  A
C1974      C1975   1.396       .  A
C1974      N1980   1.337       .  A
C1975      C1976   1.396       .  A
C1975      H1984   1.083       .  S
C1976      C1979   1.367       .  A
N1977      C1978   1.357       .  A
N1977      H1987   1.044       .  S
C1978      C1979   1.393       .  A
C1979      H1985   1.083       .  S
N1980      C1981   1.352       .  A
N1980      H1988   1.045       .  S
C1981      C1982   1.395       .  A
C1982      H1986   1.082       .  S
C1989      C1994   1.384       .  A
C1989      C1990   1.403       .  A
C1989      N1995   1.340       .  A
C1990      C1991   1.400       .  A
C1990      H2001   1.082       .  S
C1991      C2000   1.380       .  A
C1991      C1992   1.384       .  A
C1992      C1993   1.406       .  A
C1992      N1998   1.341       .  A
C1993      C1994   1.403       .  A
C1993      H2002   1.082       .  S
C1994      C1997   1.383       .  A
N1995      C1996   1.356       .  A
N1995      H2005   1.045       .  S
C1996      C1997   1.397       .  A
C1997      H2003   1.082       .  S
N1998      C1999   1.358       .  A
N1998      H2006   1.045       .  S
C1999      C2000   1.394       .  A
C2000      H2004   1.082       .  S
C2007      C2012   1.384       .  A
C2007      C2008   1.401       .  A
C2007      N2013   1.337       .  A
C2008      C2009   1.398       .  A
C2008      H2019   1.082       .  S
C2009      C2018   1.378       .  A
C2009      C2010   1.384       .  A
C2010      C2011   1.406       .  A
C2010      N2016   1.341       .  A
C2011      C2012   1.403       .  A
C2011      H2020   1.082       .  S
C2012      C2015   1.383       .  A
N2013      C2014   1.356       .  A
N2013      H2023   1.045       .  S
C2014      C2015   1.396       .  A
C2015      H2021   1.082       .  S
N2016      C2017   1.358       .  A
N2016      H2024   1.045       .  S
C2017      C2018   1.393       .  A
C2018      H2022   1.082       .  S
C2025      C2030   1.385       .  A
C2025      C2026   1.393       .  A
C2025      N2031   1.334       .  A
C2026      C2027   1.392       .  A
C2026      H2037   1.083       .  S
C2027      C2036   1.364       .  A
C2027      C2028   1.385       .  A
C2028      C2029   1.406       .  A
C2028      N2034   1.346       .  A
C2029      C2030   1.406       .  A
C2029      H2038   1.082       .  S
C2030      C2033   1.381       .  A
N2031      C2032   1.352       .  A
N2031      H2041   1.045       .  S
C2032      C2033   1.396       .  A
C2033      H2039   1.082       .  S
N2034      C2035   1.356       .  A
N2034      H2042   1.045       .  S
C2035      C2036   1.389       .  A
C2036      H2040   1.083       .  S
C2043      C2048   1.384       .  A
C2043      C2044   1.410       .  A
C2043      N2049   1.348       .  A
C2044      C2045   1.409       .  A
C2044      H2055   1.082       .  S
C2045      C2054   1.387       .  A
C2045      C2046   1.385       .  A
C2046      C2047   1.396       .  A
C2046      N2052   1.337       .  A
C2047      C2048   1.395       .  A
C2047      H2056   1.083       .  S
C2048      C2051   1.370       .  A
N2049      C2050   1.359       .  A
N2049      H2059   1.045       .  S
C2050      C2051   1.389       .  A
C2051      H2057   1.083       .  S
N2052      C2053   1.352       .  A
N2052      H2060   1.045       .  S
C2053      C2054   1.399       .  A
C2054      H2058   1.082       .  S
C2061      C2066   1.385       .  A
C2061      C2062   1.397       .  A
C2061      N2067   1.337       .  A
C2062      C2063   1.395       .  A
C2062      H2073   1.083       .  S
C2063      C2072   1.369       .  A
C2063      C2064   1.385       .  A
C2064      C2065   1.406       .  A
C2064      N2070   1.345       .  A
C2065      C2066   1.406       .  A
C2065      H2074   1.082       .  S
C2066      C2069   1.383       .  A
N2067      C2068   1.353       .  A
N2067      H2077   1.045       .  S
C2068      C2069   1.396       .  A
C2069      H2075   1.082       .  S
N2070      C2071   1.357       .  A
N2070      H2078   1.045       .  S
C2071      C2072   1.392       .  A
C2072      H2076   1.083       .  S
C2079      C2084   1.384       .  A
C2079      C2080   1.405       .  A
C2079      N2085   1.341       .  A
C2080      C2081   1.402       .  A
C2080      H2091   1.082       .  S
C2081      C2090   1.382       .  A
C2081      C2082   1.384       .  A
C2082      C2083   1.405       .  A
C2082      N2088   1.341       .  A
C2083      C2084   1.402       .  A
C2083      H2092   1.082       .  S
C2084      C2087   1.382       .  A
N2085      C2086   1.357       .  A
N2085      H2095   1.045       .  S
C2086      C2087   1.396       .  A
C2087      H2093   1.082       .  S
N2088      C2089   1.357       .  A
N2088      H2096   1.045       .  S
C2089      C2090   1.395       .  A
C2090      H2094   1.082       .  S
C2097      C2102   1.384       .  A
C2097      C2098   1.401   1_655  A
C2097      N2103   1.337       .  A
C2098      C2099   1.398       .  A
C2098      H2109   1.082       .  S
C2099      C2108   1.379       .  A
C2099      C2100   1.384       .  A
C2100      C2101   1.405       .  A
C2100      N2106   1.339       .  A
C2101      C2102   1.402   1_455  A
C2101      H2110   1.082       .  S
C2102      C2105   1.382       .  A
N2103      C2104   1.355       .  A
N2103      H2113   1.045       .  S
C2104      C2105   1.395       .  A
C2105      H2111   1.082       .  S
N2106      C2107   1.358       .  A
N2106      H2114   1.045       .  S
C2107      C2108   1.393       .  A
C2108      H2112   1.082       .  S
C2115      C2120   1.384       .  A
C2115      C2116   1.411       .  A
C2115      N2121   1.350       .  A
C2116      C2117   1.411       .  A
C2116      H2127   1.082       .  S
C2117      C2126   1.388       .  A
C2117      C2118   1.384       .  A
C2118      C2119   1.398       .  A
C2118      N2124   1.339       .  A
C2119      C2120   1.396       .  A
C2119      H2128   1.083       .  S
C2120      C2123   1.371       .  A
N2121      C2122   1.359       .  A
N2121      H2131   1.045       .  S
C2122      C2123   1.390       .  A
C2123      H2129   1.083       .  S
N2124      C2125   1.353       .  A
N2124      H2132   1.045       .  S
C2125      C2126   1.400       .  A
C2126      H2130   1.082       .  S
C2133      C2138   1.385       .  A
C2133      C2134   1.395       .  A
C2133      N2139   1.335       .  A
C2134      C2135   1.393       .  A
C2134      H2145   1.083       .  S
C2135      C2144   1.368       .  A
C2135      C2136   1.385       .  A
C2136      C2137   1.409       .  A
C2136      N2142   1.348       .  A
C2137      C2138   1.408       .  A
C2137      H2146   1.082       .  S
C2138      C2141   1.386       .  A
N2139      C2140   1.352       .  A
N2139      H2149   1.045       .  S
C2140      C2141   1.399       .  A
C2141      H2147   1.082       .  S
N2142      C2143   1.358       .  A
N2142      H2150   1.045       .  S
C2143      C2144   1.389       .  A
C2144      H2148   1.083       .  S
C2151      C2156   1.384       .  A
C2151      C2152   1.411       .  A
C2151      N2157   1.351       .  A
C2152      C2153   1.411       .  A
C2152      H2163   1.082       .  S
C2153      C2162   1.388       .  A
C2153      C2154   1.384       .  A
C2154      C2155   1.398       .  A
C2154      N2160   1.339       .  A
C2155      C2156   1.397       .  A
C2155      H2164   1.083       .  S
C2156      C2159   1.370       .  A
N2157      C2158   1.360       .  A
N2157      H2167   1.045       .  S
C2158      C2159   1.393       .  A
C2159      H2165   1.083       .  S
N2160      C2161   1.354       .  A
N2160      H2168   1.045       .  S
C2161      C2162   1.401       .  A
C2162      H2166   1.082       .  S
C2169      C2174   1.385       .  A
C2169      C2170   1.392       .  A
C2169      N2175   1.332       .  A
C2170      C2171   1.390       .  A
C2170      H2181   1.083       .  S
C2171      C2180   1.364       .  A
C2171      C2172   1.384       .  A
C2172      C2173   1.412       .  A
C2172      N2178   1.350       .  A
C2173      C2174   1.411       .  A
C2173      H2182   1.082       .  S
C2174      C2177   1.389       .  A
N2175      C2176   1.350       .  A
N2175      H2185   1.045       .  S
C2176      C2177   1.400       .  A
C2177      H2183   1.082       .  S
N2178      C2179   1.360       .  A
N2178      H2186   1.045       .  S
C2179      C2180   1.388       .  A
C2180      H2184   1.083       .  S
C2187      C2192   1.385       .  A
C2187      C2188   1.400       .  A
C2187      N2193   1.346       .  A
C2188      C2189   1.401       .  A
C2188      H2199   1.082       .  S
C2189      C2198   1.369       .  A
C2189      C2190   1.384       .  A
C2190      C2191   1.405       .  A
C2190      N2196   1.351       .  A
C2191      C2192   1.408       .  A
C2191      H2200   1.082       .  S
C2192      C2195   1.376       .  A
N2193      C2194   1.354       .  A
N2193      H2203   1.045       .  S
C2194      C2195   1.399       .  A
C2195      H2201   1.082       .  S
N2196      C2197   1.357       .  A
N2196      H2204   1.045       .  S
C2197      C2198   1.396       .  A
C2198      H2202   1.083       .  S
C2205      C2210   1.383       .  A
C2205      C2206   1.408       .  A
C2205      N2211   1.343       .  A
C2206      C2207   1.406       .  A
C2206      H2217   1.082       .  S
C2207      C2216   1.387       .  A
C2207      C2208   1.384       .  A
C2208      C2209   1.401       .  A
C2208      N2214   1.337       .  A
C2209      C2210   1.397       .  A
C2209      H2218   1.082       .  S
C2210      C2213   1.378       .  A
N2211      C2212   1.359       .  A
N2211      H2221   1.045       .  S
C2212      C2213   1.393       .  A
C2213      H2219   1.082       .  S
N2214      C2215   1.356       .  A
N2214      H2222   1.045       .  S
C2215      C2216   1.398       .  A
C2216      H2220   1.082       .  S
C2223      C2228   1.384       .  A
C2223      C2224   1.412       .  A
C2223      N2229   1.350       .  A
C2224      C2225   1.411       .  A
C2224      H2235   1.082       .  S
C2225      C2234   1.388       .  A
C2225      C2226   1.384       .  A
C2226      C2227   1.394       .  A
C2226      N2232   1.335       .  A
C2227      C2228   1.393       .  A
C2227      H2236   1.083       .  S
C2228      C2231   1.366       .  A
N2229      C2230   1.359       .  A
N2229      H2239   1.045       .  S
C2230      C2231   1.390       .  A
C2231      H2237   1.083       .  S
N2232      C2233   1.352       .  A
N2232      H2240   1.045       .  S
C2233      C2234   1.401       .  A
C2234      H2238   1.082       .  S
C2241      C2246   1.385       .  A
C2241      C2242   1.394       .  A
C2241      N2247   1.334       .  A
C2242      C2243   1.391       .  A
C2242      H2253   1.083       .  S
C2243      C2252   1.366       .  A
C2243      C2244   1.384       .  A
C2244      C2245   1.410       .  A
C2244      N2250   1.348       .  A
C2245      C2246   1.409       .  A
C2245      H2254   1.082       .  S
C2246      C2249   1.388       .  A
N2247      C2248   1.352       .  A
N2247      H2257   1.045       .  S
C2248      C2249   1.400       .  A
C2249      H2255   1.082       .  S
N2250      C2251   1.358       .  A
N2250      H2258   1.044       .  S
C2251      C2252   1.389       .  A
C2252      H2256   1.083       .  S
C2259      C2264   1.384       .  A
C2259      C2260   1.410       .  A
C2259      N2265   1.348       .  A
C2260      C2261   1.408       .  A
C2260      H2271   1.082       .  S
C2261      C2270   1.387       .  A
C2261      C2262   1.384       .  A
C2262      C2263   1.399       .  A
C2262      N2268   1.338       .  A
C2263      C2264   1.397       .  A
C2263      H2272   1.083       .  S
C2264      C2267   1.373       .  A
N2265      C2266   1.358       .  A
N2265      H2275   1.044       .  S
C2266      C2267   1.393       .  A
C2267      H2273   1.083       .  S
N2268      C2269   1.355       .  A
N2268      H2276   1.045       .  S
C2269      C2270   1.399       .  A
C2270      H2274   1.082       .  S
C2277      C2282   1.385       .  A
C2277      C2278   1.404       .  A
C2277      N2283   1.341       .  A
C2278      C2279   1.401       .  A
C2278      H2289   1.082       .  S
C2279      C2288   1.381       .  A
C2279      C2280   1.385       .  A
C2280      C2281   1.404       .  A
C2280      N2286   1.341       .  A
C2281      C2282   1.402       .  A
C2281      H2290   1.082       .  S
C2282      C2285   1.381       .  A
N2283      C2284   1.355       .  A
N2283      H2293   1.045       .  S
C2284      C2285   1.394       .  A
C2285      H2291   1.082       .  S
N2286      C2287   1.356       .  A
N2286      H2294   1.045       .  S
C2287      C2288   1.393       .  A
C2288      H2292   1.082       .  S
C2295      C2300   1.386       .  A
C2295      C2296   1.393       .  A
C2295      N2301   1.335       .  A
C2296      C2297   1.392       .  A
C2296      H2307   1.083       .  S
C2297      C2306   1.363       .  A
C2297      C2298   1.385       .  A
C2298      C2299   1.405       .  A
C2298      N2304   1.347       .  A
C2299      C2300   1.405       .  A
C2299      H2308   1.082       .  S
C2300      C2303   1.379       .  A
N2301      C2302   1.351       .  A
N2301      H2311   1.045       .  S
C2302      C2303   1.396       .  A
C2303      H2309   1.082       .  S
N2304      C2305   1.355       .  A
N2304      H2312   1.044       .  S
C2305      C2306   1.390       .  A
C2306      H2310   1.083       .  S
C2313      C2318   1.383       .  A
C2313      C2314   1.406       .  A
C2313      N2319   1.341       .  A
C2314      C2315   1.403       .  A
C2314      H2325   1.082       .  S
C2315      C2324   1.384       .  A
C2315      C2316   1.383       .  A
C2316      C2317   1.406       .  A
C2316      N2322   1.341       .  A
C2317      C2318   1.403       .  A
C2317      H2326   1.082       .  S
C2318      C2321   1.384       .  A
N2319      C2320   1.358       .  A
N2319      H2329   1.045       .  S
C2320      C2321   1.396       .  A
C2321      H2327   1.082       .  S
N2322      C2323   1.358       .  A
N2322      H2330   1.045       .  S
C2323      C2324   1.397       .  A
C2324      H2328   1.082       .  S
C2331      C2336   1.385       .  A
C2331      C2332   1.402       .  A
C2331      N2337   1.347       .  A
C2332      C2333   1.404       .  A
C2332      H2343   1.082       .  S
C2333      C2342   1.373       .  A
C2333      C2334   1.385       .  A
C2334      C2335   1.403       .  A
C2334      N2340   1.348       .  A
C2335      C2336   1.405       .  A
C2335      H2344   1.082       .  S
C2336      C2339   1.374       .  A
N2337      C2338   1.355       .  A
N2337      H2347   1.045       .  S
C2338      C2339   1.397       .  A
C2339      H2345   1.083       .  S
N2340      C2341   1.356       .  A
N2340      H2348   1.045       .  S
C2341      C2342   1.398       .  A
C2342      H2346   1.083       .  S
C2349      C2354   1.384       .  A
C2349      C2350   1.410       .  A
C2349      N2355   1.349       .  A
C2350      C2351   1.409       .  A
C2350      H2361   1.082       .  S
C2351      C2360   1.387       .  A
C2351      C2352   1.384       .  A
C2352      C2353   1.395       .  A
C2352      N2358   1.335       .  A
C2353      C2354   1.394       .  A
C2353      H2362   1.083       .  S
C2354      C2357   1.367       .  A
N2355      C2356   1.359       .  A
N2355      H2365   1.045       .  S
C2356      C2357   1.392       .  A
C2357      H2363   1.083       .  S
N2358      C2359   1.353       .  A
N2358      H2366   1.045       .  S
C2359      C2360   1.400       .  A
C2360      H2364   1.082       .  S
C2367      C2372   1.384       .  A
C2367      C2368   1.409       .  A
C2367      N2373   1.351       .  A
C2368      C2369   1.409       .  A
C2368      H2379   1.082       .  S
C2369      C2378   1.385       .  A
C2369      C2370   1.384       .  A
C2370      C2371   1.401       .  A
C2370      N2376   1.342       .  A
C2371      C2372   1.401       .  A
C2371      H2380   1.083       .  S
C2372      C2375   1.373       .  A
N2373      C2374   1.358       .  A
N2373      H2383   1.044       .  S
C2374      C2375   1.395       .  A
C2375      H2381   1.083       .  S
N2376      C2377   1.355       .  A
N2376      H2384   1.045       .  S
C2377      C2378   1.398       .  A
C2378      H2382   1.082       .  S
C2385      C2390   1.384       .  A
C2385      C2386   1.403       .  A
C2385      N2391   1.348       .  A
C2386      C2387   1.405       .  A
C2386      H2397   1.082       .  S
C2387      C2396   1.373       .  A
C2387      C2388   1.385       .  A
C2388      C2389   1.400       .  A
C2388      N2394   1.346       .  A
C2389      C2390   1.402       .  A
C2389      H2398   1.082       .  S
C2390      C2393   1.370       .  A
N2391      C2392   1.356       .  A
N2391      H2401   1.045       .  S
C2392      C2393   1.396       .  A
C2393      H2399   1.083       .  S
N2394      C2395   1.355       .  A
N2394      H2402   1.045       .  S
C2395      C2396   1.398       .  A
C2396      H2400   1.083       .  S
C2403      C2408   1.385       .  A
C2403      C2404   1.402       .  A
C2403      N2409   1.348       .  A
C2404      C2405   1.403       .  A
C2404      H2415   1.082       .  S
C2405      C2414   1.372       .  A
C2405      C2406   1.384       .  A
C2406      C2407   1.404       .  A
C2406      N2412   1.349       .  A
C2407      C2408   1.406       .  A
C2407      H2416   1.082       .  S
C2408      C2411   1.374       .  A
N2409      C2410   1.355       .  A
N2409      H2419   1.045       .  S
C2410      C2411   1.399       .  A
C2411      H2417   1.083       .  S
N2412      C2413   1.357       .  A
N2412      H2420   1.045       .  S
C2413      C2414   1.397       .  A
C2414      H2418   1.083       .  S
C2421      C2426   1.384   1_565  A
C2421      C2422   1.405   1_556  A
C2421      N2427   1.338       .  A
C2422      C2423   1.400       .  A
C2422      H2433   1.082       .  S
C2423      C2432   1.384       .  A
C2423      C2424   1.383   1_565  A
C2424      C2425   1.406       .  A
C2424      N2430   1.338       .  A
C2425      C2426   1.401   1_554  A
C2425      H2434   1.082       .  S
C2426      C2429   1.385       .  A
N2427      C2428   1.357       .  A
N2427      H2437   1.045       .  S
C2428      C2429   1.395   1_565  A
C2429      H2435   1.082       .  S
N2430      C2431   1.357       .  A
N2430      H2438   1.045       .  S
C2431      C2432   1.394   1_545  A
C2432      H2436   1.082       .  S
C2439      C2444   1.385       .  A
C2439      C2440   1.403       .  A
C2439      N2445   1.339       .  A
C2440      C2441   1.400       .  A
C2440      H2451   1.082       .  S
C2441      C2450   1.382   1_565  A
C2441      C2442   1.385       .  A
C2442      C2443   1.404       .  A
C2442      N2448   1.340   1_565  A
C2443      C2444   1.401       .  A
C2443      H2452   1.082       .  S
C2444      C2447   1.382       .  A
N2445      C2446   1.354       .  A
N2445      H2455   1.045   1_565  S
C2446      C2447   1.393       .  A
C2447      H2453   1.082       .  S
N2448      C2449   1.355       .  A
N2448      H2456   1.045       .  S
C2449      C2450   1.393       .  A
C2450      H2454   1.082       .  S
C2457      C2462   1.383   1_545  A
C2457      C2458   1.405       .  A
C2457      N2463   1.339       .  A
C2458      C2459   1.401   1_554  A
C2458      H2469   1.082       .  S
C2459      C2468   1.384       .  A
C2459      C2460   1.383   1_545  A
C2460      C2461   1.406   1_556  A
C2460      N2466   1.339       .  A
C2461      C2462   1.402       .  A
C2461      H2470   1.082       .  S
C2462      C2465   1.385       .  A
N2463      C2464   1.357   1_545  A
N2463      H2473   1.045       .  S
C2464      C2465   1.395       .  A
C2465      H2471   1.082       .  S
N2466      C2467   1.357       .  A
N2466      H2474   1.045       .  S
C2467      C2468   1.394   1_565  A
C2468      H2472   1.082       .  S
C2475      C2480   1.385       .  A
C2475      C2476   1.402   1_455  A
C2475      N2481   1.348       .  A
C2476      C2477   1.404       .  A
C2476      H2487   1.082       .  S
C2477      C2486   1.372       .  A
C2477      C2478   1.385       .  A
C2478      C2479   1.403       .  A
C2478      N2484   1.349       .  A
C2479      C2480   1.405   1_655  A
C2479      H2488   1.082       .  S
C2480      C2483   1.374       .  A
N2481      C2482   1.356       .  A
N2481      H2491   1.045       .  S
C2482      C2483   1.398       .  A
C2483      H2489   1.083       .  S
N2484      C2485   1.356       .  A
N2484      H2492   1.045       .  S
C2485      C2486   1.397       .  A
C2486      H2490   1.083       .  S
C2493      C2498   1.384       .  A
C2493      C2494   1.403       .  A
C2493      N2499   1.340       .  A
C2494      C2495   1.400       .  A
C2494      H2505   1.082       .  S
C2495      C2504   1.380       .  A
C2495      C2496   1.384       .  A
C2496      C2497   1.404       .  A
C2496      N2502   1.340       .  A
C2497      C2498   1.402       .  A
C2497      H2506   1.082       .  S
C2498      C2501   1.381       .  A
N2499      C2500   1.356       .  A
N2499      H2509   1.045       .  S
C2500      C2501   1.396       .  A
C2501      H2507   1.082       .  S
N2502      C2503   1.357       .  A
N2502      H2510   1.045       .  S
C2503      C2504   1.395       .  A
C2504      H2508   1.082       .  S
C2511      C2516   1.384   1_545  A
C2511      C2512   1.401       .  A
C2511      N2517   1.340       .  A
C2512      C2513   1.400       .  A
C2512      H2523   1.083       .  S
C2513      C2522   1.375       .  A
C2513      C2514   1.384   1_545  A
C2514      C2515   1.408       .  A
C2514      N2520   1.348       .  A
C2515      C2516   1.407       .  A
C2515      H2524   1.082       .  S
C2516      C2519   1.384       .  A
N2517      C2518   1.355       .  A
N2517      H2527   1.045       .  S
C2518      C2519   1.396   1_545  A
C2519      H2525   1.082       .  S
N2520      C2521   1.357   1_565  A
N2520      H2528   1.044       .  S
C2521      C2522   1.394       .  A
C2522      H2526   1.083       .  S
C2529      C2534   1.384       .  A
C2529      C2530   1.411       .  A
C2529      N2535   1.350       .  A
C2530      C2531   1.411       .  A
C2530      H2541   1.082       .  S
C2531      C2540   1.389       .  A
C2531      C2532   1.384       .  A
C2532      C2533   1.396       .  A
C2532      N2538   1.336       .  A
C2533      C2534   1.394       .  A
C2533      H2542   1.083       .  S
C2534      C2537   1.367       .  A
N2535      C2536   1.359       .  A
N2535      H2545   1.044       .  S
C2536      C2537   1.392       .  A
C2537      H2543   1.083       .  S
N2538      C2539   1.354       .  A
N2538      H2546   1.045       .  S
C2539      C2540   1.401       .  A
C2540      H2544   1.082       .  S
C2547      C2552   1.385       .  A
C2547      C2548   1.399       .  A
C2547      N2553   1.344       .  A
C2548      C2549   1.400       .  A
C2548      H2559   1.082       .  S
C2549      C2558   1.369       .  A
C2549      C2550   1.384       .  A
C2550      C2551   1.405       .  A
C2550      N2556   1.349       .  A
C2551      C2552   1.407       .  A
C2551      H2560   1.082       .  S
C2552      C2555   1.377       .  A
N2553      C2554   1.354       .  A
N2553      H2563   1.045       .  S
C2554      C2555   1.398       .  A
C2555      H2561   1.082       .  S
N2556      C2557   1.357       .  A
N2556      H2564   1.045       .  S
C2557      C2558   1.395       .  A
C2558      H2562   1.083       .  S
C2565      C2570   1.384       .  A
C2565      C2566   1.401       .  A
C2565      N2571   1.337       .  A
C2566      C2567   1.397       .  A
C2566      H2577   1.082       .  S
C2567      C2576   1.378       .  A
C2567      C2568   1.384       .  A
C2568      C2569   1.409       .  A
C2568      N2574   1.343       .  A
C2569      C2570   1.406       .  A
C2569      H2578   1.082       .  S
C2570      C2573   1.388       .  A
N2571      C2572   1.356       .  A
N2571      H2581   1.045       .  S
C2572      C2573   1.399       .  A
C2573      H2579   1.082       .  S
N2574      C2575   1.359       .  A
N2574      H2582   1.045       .  S
C2575      C2576   1.393       .  A
C2576      H2580   1.082       .  S
C2583      C2588   1.384       .  A
C2583      C2584   1.395       .  A
C2583      N2589   1.336       .  A
C2584      C2585   1.394       .  A
C2584      H2595   1.083       .  S
C2585      C2594   1.367       .  A
C2585      C2586   1.383       .  A
C2586      C2587   1.413       .  A
C2586      N2592   1.352       .  A
C2587      C2588   1.413       .  A
C2587      H2596   1.082       .  S
C2588      C2591   1.390       .  A
N2589      C2590   1.353       .  A
N2589      H2599   1.045       .  S
C2590      C2591   1.402       .  A
C2591      H2597   1.082       .  S
N2592      C2593   1.361       .  A
N2592      H2600   1.044       .  S
C2593      C2594   1.392       .  A
C2594      H2598   1.083       .  S
C2601      C2606   1.384       .  A
C2601      C2602   1.405   1_556  A
C2601      N2607   1.338       .  A
C2602      C2603   1.401       .  A
C2602      H2613   1.082       .  S
C2603      C2612   1.384       .  A
C2603      C2604   1.384       .  A
C2604      C2605   1.403       .  A
C2604      N2610   1.336       .  A
C2605      C2606   1.399   1_554  A
C2605      H2614   1.082       .  S
C2606      C2609   1.383       .  A
N2607      C2608   1.357       .  A
N2607      H2617   1.045       .  S
C2608      C2609   1.394       .  A
C2609      H2615   1.082       .  S
N2610      C2611   1.356       .  A
N2610      H2618   1.045       .  S
C2611      C2612   1.395       .  A
C2612      H2616   1.082       .  S
C2619      C2624   1.384       .  A
C2619      C2620   1.410       .  A
C2619      N2625   1.350       .  A
C2620      C2621   1.410       .  A
C2620      H2631   1.082       .  S
C2621      C2630   1.388       .  A
C2621      C2622   1.384       .  A
C2622      C2623   1.399       .  A
C2622      N2628   1.338       .  A
C2623      C2624   1.398       .  A
C2623      H2632   1.083       .  S
C2624      C2627   1.372       .  A
N2625      C2626   1.359       .  A
N2625      H2635   1.044       .  S
C2626      C2627   1.394       .  A
C2627      H2633   1.083       .  S
N2628      C2629   1.355       .  A
N2628      H2636   1.045       .  S
C2629      C2630   1.400       .  A
C2630      H2634   1.082       .  S
C2637      C2642   1.385       .  A
C2637      C2638   1.403       .  A
C2637      N2643   1.339       .  A
C2638      C2639   1.400       .  A
C2638      H2649   1.082       .  S
C2639      C2648   1.381       .  A
C2639      C2640   1.384       .  A
C2640      C2641   1.406       .  A
C2640      N2646   1.341       .  A
C2641      C2642   1.403       .  A
C2641      H2650   1.082   1_655  S
C2642      C2645   1.384       .  A
N2643      C2644   1.354       .  A
N2643      H2653   1.045       .  S
C2644      C2645   1.395       .  A
C2645      H2651   1.082       .  S
N2646      C2647   1.357       .  A
N2646      H2654   1.045   1_655  S
C2647      C2648   1.393       .  A
C2648      H2652   1.082       .  S
C2655      C2660   1.385       .  A
C2655      C2656   1.401       .  A
C2655      N2661   1.348       .  A
C2656      C2657   1.404   1_556  A
C2656      H2667   1.082       .  S
C2657      C2666   1.370       .  A
C2657      C2658   1.385       .  A
C2658      C2659   1.401       .  A
C2658      N2664   1.348       .  A
C2659      C2660   1.403   1_554  A
C2659      H2668   1.082       .  S
C2660      C2663   1.370       .  A
N2661      C2662   1.355       .  A
N2661      H2671   1.045       .  S
C2662      C2663   1.396       .  A
C2663      H2669   1.083       .  S
N2664      C2665   1.355       .  A
N2664      H2672   1.045       .  S
C2665      C2666   1.397       .  A
C2666      H2670   1.083       .  S
C2673      C2678   1.384       .  A
C2673      C2674   1.403       .  A
C2673      N2679   1.339       .  A
C2674      C2675   1.400       .  A
C2674      H2685   1.082       .  S
C2675      C2684   1.381       .  A
C2675      C2676   1.384       .  A
C2676      C2677   1.406       .  A
C2676      N2682   1.341       .  A
C2677      C2678   1.402       .  A
C2677      H2686   1.082       .  S
C2678      C2681   1.384       .  A
N2679      C2680   1.356       .  A
N2679      H2689   1.045       .  S
C2680      C2681   1.396       .  A
C2681      H2687   1.082       .  S
N2682      C2683   1.358       .  A
N2682      H2690   1.045       .  S
C2683      C2684   1.394       .  A
C2684      H2688   1.082       .  S
C2691      C2696   1.384       .  A
C2691      C2692   1.401       .  A
C2691      N2697   1.347       .  A
C2692      C2693   1.403       .  A
C2692      H2703   1.082       .  S
C2693      C2702   1.371       .  A
C2693      C2694   1.385       .  A
C2694      C2695   1.402       .  A
C2694      N2700   1.347       .  A
C2695      C2696   1.403       .  A
C2695      H2704   1.082       .  S
C2696      C2699   1.372       .  A
N2697      C2698   1.356       .  A
N2697      H2707   1.045       .  S
C2698      C2699   1.396       .  A
C2699      H2705   1.083       .  S
N2700      C2701   1.356       .  A
N2700      H2708   1.045       .  S
C2701      C2702   1.396       .  A
C2702      H2706   1.083       .  S
C2709      C2714   1.384       .  A
C2709      C2710   1.412       .  A
C2709      N2715   1.350       .  A
C2710      C2711   1.411       .  A
C2710      H2721   1.082       .  S
C2711      C2720   1.389       .  A
C2711      C2712   1.384       .  A
C2712      C2713   1.394       .  A
C2712      N2718   1.334       .  A
C2713      C2714   1.393       .  A
C2713      H2722   1.083       .  S
C2714      C2717   1.366       .  A
N2715      C2716   1.359       .  A
N2715      H2725   1.044       .  S
C2716      C2717   1.391       .  A
C2717      H2723   1.083       .  S
N2718      C2719   1.353       .  A
N2718      H2726   1.045       .  S
C2719      C2720   1.401       .  A
C2720      H2724   1.082       .  S
C2727      C2732   1.384       .  A
C2727      C2728   1.402       .  A
C2727      N2733   1.341       .  A
C2728      C2729   1.400       .  A
C2728      H2739   1.082       .  S
C2729      C2738   1.375       .  A
C2729      C2730   1.384       .  A
C2730      C2731   1.409       .  A
C2730      N2736   1.348       .  A
C2731      C2732   1.408       .  A
C2731      H2740   1.082       .  S
C2732      C2735   1.386       .  A
N2733      C2734   1.355       .  A
N2733      H2743   1.045       .  S
C2734      C2735   1.398       .  A
C2735      H2741   1.082       .  S
N2736      C2737   1.357       .  A
N2736      H2744   1.045       .  S
C2737      C2738   1.394       .  A
C2738      H2742   1.083       .  S
C2745      C2750   1.386       .  A
C2745      C2746   1.394       .  A
C2745      N2751   1.333       .  A
C2746      C2747   1.392       .  A
C2746      H2757   1.083       .  S
C2747      C2756   1.366       .  A
C2747      C2748   1.385       .  A
C2748      C2749   1.407       .  A
C2748      N2754   1.346       .  A
C2749      C2750   1.406       .  A
C2749      H2758   1.082       .  S
C2750      C2753   1.384       .  A
N2751      C2752   1.351       .  A
N2751      H2761   1.045       .  S
C2752      C2753   1.396       .  A
C2753      H2759   1.082       .  S
N2754      C2755   1.357       .  A
N2754      H2762   1.044       .  S
C2755      C2756   1.391       .  A
C2756      H2760   1.083       .  S
C2763      C2768   1.385       .  A
C2763      C2764   1.409       .  A
C2763      N2769   1.349       .  A
C2764      C2765   1.409       .  A
C2764      H2775   1.082       .  S
C2765      C2774   1.385       .  A
C2765      C2766   1.385       .  A
C2766      C2767   1.395       .  A
C2766      N2772   1.337       .  A
C2767      C2768   1.395       .  A
C2767      H2776   1.083       .  S
C2768      C2771   1.366       .  A
N2769      C2770   1.358       .  A
N2769      H2779   1.044       .  S
C2770      C2771   1.391       .  A
C2771      H2777   1.083       .  S
N2772      C2773   1.352       .  A
N2772      H2780   1.045       .  S
C2773      C2774   1.397       .  A
C2774      H2778   1.082       .  S
C2781      C2786   1.384       .  A
C2781      C2782   1.403       .  A
C2781      N2787   1.350       .  A
C2782      C2783   1.406   1_655  A
C2782      H2793   1.082       .  S
C2783      C2792   1.374       .  A
C2783      C2784   1.384       .  A
C2784      C2785   1.405       .  A
C2784      N2790   1.351       .  A
C2785      C2786   1.407   1_455  A
C2785      H2794   1.082       .  S
C2786      C2789   1.374       .  A
N2787      C2788   1.356       .  A
N2787      H2797   1.044       .  S
C2788      C2789   1.399       .  A
C2789      H2795   1.083       .  S
N2790      C2791   1.357       .  A
N2790      H2798   1.045       .  S
C2791      C2792   1.399       .  A
C2792      H2796   1.083       .  S
C2799      C2804   1.385       .  A
C2799      C2800   1.402       .  A
C2799      N2805   1.348       .  A
C2800      C2801   1.404       .  A
C2800      H2811   1.082       .  S
C2801      C2810   1.373       .  A
C2801      C2802   1.385       .  A
C2802      C2803   1.403       .  A
C2802      N2808   1.347       .  A
C2803      C2804   1.405       .  A
C2803      H2812   1.082       .  S
C2804      C2807   1.372       .  A
N2805      C2806   1.356       .  A
N2805      H2815   1.044       .  S
C2806      C2807   1.397       .  A
C2807      H2813   1.083       .  S
N2808      C2809   1.356       .  A
N2808      H2816   1.045       .  S
C2809      C2810   1.395       .  A
C2810      H2814   1.083       .  S
C2817      C2822   1.384       .  A
C2817      C2818   1.404   1_554  A
C2817      N2823   1.338       .  A
C2818      C2819   1.399       .  A
C2818      H2829   1.082       .  S
C2819      C2828   1.381       .  A
C2819      C2820   1.384       .  A
C2820      C2821   1.406       .  A
C2820      N2826   1.339       .  A
C2821      C2822   1.402   1_556  A
C2821      H2830   1.082       .  S
C2822      C2825   1.385       .  A
N2823      C2824   1.356       .  A
N2823      H2833   1.045       .  S
C2824      C2825   1.396       .  A
C2825      H2831   1.082       .  S
N2826      C2827   1.357       .  A
N2826      H2834   1.045       .  S
C2827      C2828   1.393       .  A
C2828      H2832   1.082       .  S
C2835      C2840   1.384       .  A
C2835      C2836   1.410       .  A
C2835      N2841   1.348       .  A
C2836      C2837   1.410       .  A
C2836      H2847   1.082       .  S
C2837      C2846   1.388       .  A
C2837      C2838   1.385       .  A
C2838      C2839   1.396       .  A
C2838      N2844   1.336       .  A
C2839      C2840   1.394       .  A
C2839      H2848   1.083       .  S
C2840      C2843   1.369       .  A
N2841      C2842   1.359       .  A
N2841      H2851   1.045       .  S
C2842      C2843   1.391       .  A
C2843      H2849   1.083       .  S
N2844      C2845   1.352       .  A
N2844      H2852   1.045       .  S
C2845      C2846   1.399       .  A
C2846      H2850   1.082       .  S
C2853      C2858   1.386       .  A
C2853      C2854   1.396       .  A
C2853      N2859   1.336       .  A
C2854      C2855   1.395       .  A
C2854      H2865   1.083       .  S
C2855      C2864   1.368       .  A
C2855      C2856   1.385       .  A
C2856      C2857   1.404       .  A
C2856      N2862   1.343       .  A
C2857      C2858   1.403       .  A
C2857      H2866   1.082       .  S
C2858      C2861   1.378       .  A
N2859      C2860   1.351       .  A
N2859      H2869   1.045       .  S
C2860      C2861   1.394       .  A
C2861      H2867   1.082       .  S
N2862      C2863   1.355       .  A
N2862      H2870   1.045       .  S
C2863      C2864   1.390       .  A
C2864      H2868   1.083       .  S
C2871      C2876   1.384       .  A
C2871      C2872   1.406       .  A
C2871      N2877   1.351       .  A
C2872      C2873   1.408   1_554  A
C2872      H2883   1.082       .  S
C2873      C2882   1.376       .  A
C2873      C2874   1.385       .  A
C2874      C2875   1.400       .  A
C2874      N2880   1.347       .  A
C2875      C2876   1.402   1_556  A
C2875      H2884   1.082       .  S
C2876      C2879   1.370       .  A
N2877      C2878   1.358       .  A
N2877      H2887   1.045       .  S
C2878      C2879   1.396       .  A
C2879      H2885   1.083       .  S
N2880      C2881   1.353       .  A
N2880      H2888   1.045       .  S
C2881      C2882   1.399       .  A
C2882      H2886   1.083       .  S
C2889      C2894   1.385       .  A
C2889      C2890   1.398       .  A
C2889      N2895   1.338       .  A
C2890      C2891   1.396       .  A
C2890      H2901   1.083       .  S
C2891      C2900   1.370       .  A
C2891      C2892   1.384       .  A
C2892      C2893   1.409       .  A
C2892      N2898   1.348       .  A
C2893      C2894   1.408       .  A
C2893      H2902   1.082       .  S
C2894      C2897   1.386       .  A
N2895      C2896   1.354       .  A
N2895      H2905   1.045       .  S
C2896      C2897   1.399       .  A
C2897      H2903   1.082       .  S
N2898      C2899   1.357       .  A
N2898      H2906   1.044       .  S
C2899      C2900   1.393       .  A
C2900      H2904   1.083       .  S
C2907      C2912   1.384       .  A
C2907      C2908   1.406       .  A
C2907      N2913   1.350       .  A
C2908      C2909   1.408       .  A
C2908      H2919   1.082       .  S
C2909      C2918   1.376       .  A
C2909      C2910   1.385       .  A
C2910      C2911   1.399       .  A
C2910      N2916   1.345       .  A
C2911      C2912   1.401       .  A
C2911      H2920   1.082       .  S
C2912      C2915   1.370       .  A
N2913      C2914   1.358       .  A
N2913      H2923   1.045       .  S
C2914      C2915   1.394       .  A
C2915      H2921   1.083       .  S
N2916      C2917   1.354       .  A
N2916      H2924   1.045       .  S
C2917      C2918   1.399       .  A
C2918      H2922   1.083       .  S
C2925      C2930   1.385       .  A
C2925      C2926   1.402       .  A
C2925      N2931   1.346       .  A
C2926      C2927   1.403       .  A
C2926      H2937   1.082       .  S
C2927      C2936   1.373       .  A
C2927      C2928   1.384       .  A
C2928      C2929   1.403       .  A
C2928      N2934   1.347       .  A
C2929      C2930   1.405       .  A
C2929      H2938   1.082       .  S
C2930      C2933   1.375       .  A
N2931      C2932   1.356       .  A
N2931      H2941   1.045       .  S
C2932      C2933   1.398       .  A
C2933      H2939   1.082       .  S
N2934      C2935   1.356       .  A
N2934      H2942   1.045       .  S
C2935      C2936   1.396       .  A
C2936      H2940   1.083       .  S
C2943      C2948   1.385       .  A
C2943      C2944   1.402       .  A
C2943      N2949   1.338       .  A
C2944      C2945   1.399       .  A
C2944      H2955   1.082       .  S
C2945      C2954   1.379       .  A
C2945      C2946   1.385       .  A
C2946      C2947   1.401       .  A
C2946      N2952   1.338       .  A
C2947      C2948   1.398       .  A
C2947      H2956   1.082       .  S
C2948      C2951   1.378       .  A
N2949      C2950   1.355       .  A
N2949      H2959   1.045       .  S
C2950      C2951   1.391       .  A
C2951      H2957   1.082       .  S
N2952      C2953   1.355       .  A
N2952      H2960   1.045       .  S
C2953      C2954   1.393       .  A
C2954      H2958   1.082       .  S
C2961      C2966   1.385       .  A
C2961      C2962   1.397       .  A
C2961      N2967   1.338       .  A
C2962      C2963   1.396       .  A
C2962      H2973   1.083       .  S
C2963      C2972   1.370       .  A
C2963      C2964   1.385       .  A
C2964      C2965   1.407       .  A
C2964      N2970   1.346       .  A
C2965      C2966   1.406       .  A
C2965      H2974   1.082       .  S
C2966      C2969   1.383       .  A
N2967      C2968   1.352       .  A
N2967      H2977   1.045       .  S
C2968      C2969   1.396       .  A
C2969      H2975   1.082       .  S
N2970      C2971   1.357       .  A
N2970      H2978   1.045       .  S
C2971      C2972   1.393       .  A
C2972      H2976   1.083       .  S
C2979      C2984   1.383       .  A
C2979      C2980   1.396       .  A
C2979      N2985   1.335       .  A
C2980      C2981   1.394       .  A
C2980      H2991   1.083       .  S
C2981      C2990   1.367       .  A
C2981      C2982   1.384       .  A
C2982      C2983   1.413       .  A
C2982      N2988   1.351       .  A
C2983      C2984   1.412       .  A
C2983      H2992   1.082       .  S
C2984      C2987   1.391       .  A
N2985      C2986   1.354       .  A
N2985      H2995   1.045       .  S
C2986      C2987   1.402       .  A
C2987      H2993   1.082       .  S
N2988      C2989   1.359       .  A
N2988      H2996   1.044       .  S
C2989      C2990   1.392       .  A
C2990      H2994   1.083       .  S
C2997      C3002   1.384       .  A
C2997      C2998   1.408       .  A
C2997      N3003   1.348       .  A
C2998      C2999   1.408       .  A
C2998      H3009   1.082       .  S
C2999      C3008   1.385       .  A
C2999      C3000   1.385       .  A
C3000      C3001   1.395       .  A
C3000      N3006   1.336       .  A
C3001      C3002   1.394       .  A
C3001      H3010   1.083       .  S
C3002      C3005   1.367       .  A
N3003      C3004   1.358       .  A
N3003      H3013   1.044       .  S
C3004      C3005   1.392       .  A
C3005      H3011   1.083       .  S
N3006      C3007   1.352       .  A
N3006      H3014   1.045       .  S
C3007      C3008   1.398       .  A
C3008      H3012   1.082       .  S
C3015      C3020   1.384       .  A
C3015      C3016   1.405       .  A
C3015      N3021   1.342       .  A
C3016      C3017   1.403       .  A
C3016      H3027   1.082       .  S
C3017      C3026   1.382       .  A
C3017      C3018   1.384       .  A
C3018      C3019   1.404       .  A
C3018      N3024   1.340       .  A
C3019      C3020   1.401       .  A
C3019      H3028   1.082       .  S
C3020      C3023   1.380       .  A
N3021      C3022   1.357       .  A
N3021      H3031   1.045       .  S
C3022      C3023   1.395       .  A
C3023      H3029   1.082       .  S
N3024      C3025   1.357       .  A
N3024      H3032   1.045       .  S
C3025      C3026   1.396       .  A
C3026      H3030   1.082       .  S
C3033      C3038   1.385       .  A
C3033      C3034   1.403       .  A
C3033      N3039   1.348       .  A
C3034      C3035   1.405       .  A
C3034      H3045   1.082       .  S
C3035      C3044   1.374       .  A
C3035      C3036   1.385       .  A
C3036      C3037   1.401       .  A
C3036      N3042   1.346       .  A
C3037      C3038   1.402       .  A
C3037      H3046   1.082       .  S
C3038      C3041   1.370       .  A
N3039      C3040   1.356       .  A
N3039      H3049   1.045       .  S
C3040      C3041   1.397       .  A
C3041      H3047   1.083       .  S
N3042      C3043   1.355       .  A
N3042      H3050   1.045       .  S
C3043      C3044   1.398       .  A
C3044      H3048   1.083       .  S
C3051      C3056   1.384       .  A
C3051      C3052   1.410       .  A
C3051      N3057   1.349       .  A
C3052      C3053   1.409       .  A
C3052      H3063   1.082       .  S
C3053      C3062   1.387       .  A
C3053      C3054   1.384       .  A
C3054      C3055   1.401       .  A
C3054      N3060   1.340       .  A
C3055      C3056   1.399       .  A
C3055      H3064   1.083       .  S
C3056      C3059   1.374       .  A
N3057      C3058   1.359       .  A
N3057      H3067   1.045       .  S
C3058      C3059   1.395       .  A
C3059      H3065   1.083       .  S
N3060      C3061   1.356       .  A
N3060      H3068   1.045       .  S
C3061      C3062   1.399       .  A
C3062      H3066   1.082       .  S
C3069      C3074   1.383       .  A
C3069      C3070   1.405   1_455  A
C3069      N3075   1.339       .  A
C3070      C3071   1.401   1_556  A
C3070      H3081   1.082       .  S
C3071      C3080   1.385       .  A
C3071      C3072   1.383       .  A
C3072      C3073   1.409   1_654  A
C3072      N3078   1.341       .  A
C3073      C3074   1.405       .  A
C3073      H3082   1.082       .  S
C3074      C3077   1.388       .  A
N3075      C3076   1.356       .  A
N3075      H3085   1.045       .  S
C3076      C3077   1.398       .  A
C3077      H3083   1.082       .  S
N3078      C3079   1.359       .  A
N3078      H3086   1.045       .  S
C3079      C3080   1.395       .  A
C3080      H3084   1.082       .  S
C3087      C3092   1.385       .  A
C3087      C3088   1.406       .  A
C3087      N3093   1.349       .  A
C3088      C3089   1.407       .  A
C3088      H3099   1.082       .  S
C3089      C3098   1.380       .  A
C3089      C3090   1.385       .  A
C3090      C3091   1.397       .  A
C3090      N3096   1.340       .  A
C3091      C3092   1.397       .  A
C3091      H3100   1.083       .  S
C3092      C3095   1.366       .  A
N3093      C3094   1.356       .  A
N3093      H3103   1.045       .  S
C3094      C3095   1.392       .  A
C3095      H3101   1.083       .  S
N3096      C3097   1.354       .  A
N3096      H3104   1.045       .  S
C3097      C3098   1.397       .  A
C3098      H3102   1.082       .  S
C3105      C3110   1.385       .  A
C3105      C3106   1.395       .  A
C3105      N3111   1.336       .  A
C3106      C3107   1.394       .  A
C3106      H3117   1.083       .  S
C3107      C3116   1.366       .  A
C3107      C3108   1.383       .  A
C3108      C3109   1.411       .  A
C3108      N3114   1.352       .  A
C3109      C3110   1.411       .  A
C3109      H3118   1.082       .  S
C3110      C3113   1.387       .  A
N3111      C3112   1.352       .  A
N3111      H3121   1.045       .  S
C3112      C3113   1.399       .  A
C3113      H3119   1.082       .  S
N3114      C3115   1.360       .  A
N3114      H3122   1.044       .  S
C3115      C3116   1.393       .  A
C3116      H3120   1.083       .  S
C3123      C3128   1.384       .  A
C3123      C3124   1.407       .  A
C3123      N3129   1.348       .  A
C3124      C3125   1.406       .  A
C3124      H3135   1.082       .  S
C3125      C3134   1.382       .  A
C3125      C3126   1.385       .  A
C3126      C3127   1.401       .  A
C3126      N3132   1.341       .  A
C3127      C3128   1.400       .  A
C3127      H3136   1.083       .  S
C3128      C3131   1.374       .  A
N3129      C3130   1.356       .  A
N3129      H3139   1.044       .  S
C3130      C3131   1.395       .  A
C3131      H3137   1.083       .  S
N3132      C3133   1.354       .  A
N3132      H3140   1.045       .  S
C3133      C3134   1.396       .  A
C3134      H3138   1.082       .  S
C3141      C3146   1.384       .  A
C3141      C3142   1.404   1_554  A
C3141      N3147   1.352       .  A
C3142      C3143   1.408       .  A
C3142      H3153   1.082       .  S
C3143      C3152   1.373       .  A
C3143      C3144   1.385       .  A
C3144      C3145   1.400       .  A
C3144      N3150   1.349       .  A
C3145      C3146   1.403   1_556  A
C3145      H3154   1.082       .  S
C3146      C3149   1.368       .  A
N3147      C3148   1.357       .  A
N3147      H3157   1.045       .  S
C3148      C3149   1.396       .  A
C3149      H3155   1.083       .  S
N3150      C3151   1.353       .  A
N3150      H3158   1.044       .  S
C3151      C3152   1.400       .  A
C3152      H3156   1.083       .  S
C3159      C3164   1.384       .  A
C3159      C3160   1.409       .  A
C3159      N3165   1.348       .  A
C3160      C3161   1.409       .  A
C3160      H3171   1.082       .  S
C3161      C3170   1.386       .  A
C3161      C3162   1.385       .  A
C3162      C3163   1.394       .  A
C3162      N3168   1.335       .  A
C3163      C3164   1.392       .  A
C3163      H3172   1.083       .  S
C3164      C3167   1.364       .  A
N3165      C3166   1.358       .  A
N3165      H3175   1.045       .  S
C3166      C3167   1.390       .  A
C3167      H3173   1.083       .  S
N3168      C3169   1.351       .  A
N3168      H3176   1.045       .  S
C3169      C3170   1.398       .  A
C3170      H3174   1.082       .  S
C3177      C3182   1.384       .  A
C3177      C3178   1.403       .  A
C3177      N3183   1.348       .  A
C3178      C3179   1.405       .  A
C3178      H3189   1.082       .  S
C3179      C3188   1.375       .  A
C3179      C3180   1.384       .  A
C3180      C3181   1.404       .  A
C3180      N3186   1.348       .  A
C3181      C3182   1.405       .  A
C3181      H3190   1.082       .  S
C3182      C3185   1.376       .  A
N3183      C3184   1.356       .  A
N3183      H3193   1.045       .  S
C3184      C3185   1.398       .  A
C3185      H3191   1.083       .  S
N3186      C3187   1.356       .  A
N3186      H3194   1.045       .  S
C3187      C3188   1.399       .  A
C3188      H3192   1.083       .  S
C3195      C3200   1.383       .  A
C3195      C3196   1.404       .  A
C3195      N3201   1.339       .  A
C3196      C3197   1.400       .  A
C3196      H3207   1.082       .  S
C3197      C3206   1.380       .  A
C3197      C3198   1.384       .  A
C3198      C3199   1.407       .  A
C3198      N3204   1.342       .  A
C3199      C3200   1.404       .  A
C3199      H3208   1.082       .  S
C3200      C3203   1.385       .  A
N3201      C3202   1.357       .  A
N3201      H3211   1.045       .  S
C3202      C3203   1.397       .  A
C3203      H3209   1.082       .  S
N3204      C3205   1.358       .  A
N3204      H3212   1.045       .  S
C3205      C3206   1.394       .  A
C3206      H3210   1.082       .  S
C3213      C3218   1.384       .  A
C3213      C3214   1.399       .  A
C3213      N3219   1.340       .  A
C3214      C3215   1.399       .  A
C3214      H3225   1.083       .  S
C3215      C3224   1.373       .  A
C3215      C3216   1.383       .  A
C3216      C3217   1.413       .  A
C3216      N3222   1.353       .  A
C3217      C3218   1.413       .  A
C3217      H3226   1.082       .  S
C3218      C3221   1.390       .  A
N3219      C3220   1.355       .  A
N3219      H3229   1.045       .  S
C3220      C3221   1.401       .  A
C3221      H3227   1.082       .  S
N3222      C3223   1.361       .  A
N3222      H3230   1.044       .  S
C3223      C3224   1.394       .  A
C3224      H3228   1.083       .  S
C3231      C3236   1.385       .  A
C3231      C3232   1.403       .  A
C3231      N3237   1.339       .  A
C3232      C3233   1.399       .  A
C3232      H3243   1.082       .  S
C3233      C3242   1.380       .  A
C3233      C3234   1.385       .  A
C3234      C3235   1.403       .  A
C3234      N3240   1.338       .  A
C3235      C3236   1.400       .  A
C3235      H3244   1.082       .  S
C3236      C3239   1.380       .  A
N3237      C3238   1.354       .  A
N3237      H3247   1.045       .  S
C3238      C3239   1.393       .  A
C3239      H3245   1.082       .  S
N3240      C3241   1.354       .  A
N3240      H3248   1.045       .  S
C3241      C3242   1.392       .  A
C3242      H3246   1.082       .  S
C3249      C3254   1.384       .  A
C3249      C3250   1.404       .  A
C3249      N3255   1.338       .  A
C3250      C3251   1.400       .  A
C3250      H3261   1.082       .  S
C3251      C3260   1.384       .  A
C3251      C3252   1.383       .  A
C3252      C3253   1.407       .  A
C3252      N3258   1.340       .  A
C3253      C3254   1.403       .  A
C3253      H3262   1.082       .  S
C3254      C3257   1.385       .  A
N3255      C3256   1.355       .  A
N3255      H3265   1.045       .  S
C3256      C3257   1.396       .  A
C3257      H3263   1.082       .  S
N3258      C3259   1.359       .  A
N3258      H3266   1.045       .  S
C3259      C3260   1.394       .  A
C3260      H3264   1.082       .  S
C3267      C3272   1.384       .  A
C3267      C3268   1.403       .  A
C3267      N3273   1.349       .  A
C3268      C3269   1.405       .  A
C3268      H3279   1.082       .  S
C3269      C3278   1.374       .  A
C3269      C3270   1.385       .  A
C3270      C3271   1.401       .  A
C3270      N3276   1.346       .  A
C3271      C3272   1.403       .  A
C3271      H3280   1.082       .  S
C3272      C3275   1.371       .  A
N3273      C3274   1.356       .  A
N3273      H3283   1.044       .  S
C3274      C3275   1.397       .  A
C3275      H3281   1.083       .  S
N3276      C3277   1.354       .  A
N3276      H3284   1.045       .  S
C3277      C3278   1.397       .  A
C3278      H3282   1.083       .  S
C3285      C3290   1.384       .  A
C3285      C3286   1.404       .  A
C3285      N3291   1.339       .  A
C3286      C3287   1.401       .  A
C3286      H3297   1.082       .  S
C3287      C3296   1.382       .  A
C3287      C3288   1.385       .  A
C3288      C3289   1.400       .  A
C3288      N3294   1.336       .  A
C3289      C3290   1.396       .  A
C3289      H3298   1.082       .  S
C3290      C3293   1.377       .  A
N3291      C3292   1.357       .  A
N3291      H3301   1.045       .  S
C3292      C3293   1.392       .  A
C3293      H3299   1.082       .  S
N3294      C3295   1.354       .  A
N3294      H3302   1.045       .  S
C3295      C3296   1.395       .  A
C3296      H3300   1.082       .  S
C3303      C3308   1.383       .  A
C3303      C3304   1.407   1_455  A
C3303      N3309   1.342       .  A
C3304      C3305   1.404       .  A
C3304      H3315   1.082       .  S
C3305      C3314   1.385       .  A
C3305      C3306   1.383       .  A
C3306      C3307   1.405       .  A
C3306      N3312   1.340       .  A
C3307      C3308   1.401   1_655  A
C3307      H3316   1.082       .  S
C3308      C3311   1.382       .  A
N3309      C3310   1.359       .  A
N3309      H3319   1.045       .  S
C3310      C3311   1.394       .  A
C3311      H3317   1.082       .  S
N3312      C3313   1.357       .  A
N3312      H3320   1.045       .  S
C3313      C3314   1.397       .  A
C3314      H3318   1.082       .  S
C3321      C3326   1.384       .  A
C3321      C3322   1.405       .  A
C3321      N3327   1.341       .  A
C3322      C3323   1.402       .  A
C3322      H3333   1.082       .  S
C3323      C3332   1.382       .  A
C3323      C3324   1.385       .  A
C3324      C3325   1.404       .  A
C3324      N3330   1.341       .  A
C3325      C3326   1.402       .  A
C3325      H3334   1.082       .  S
C3326      C3329   1.381       .  A
N3327      C3328   1.356       .  A
N3327      H3337   1.045       .  S
C3328      C3329   1.394       .  A
C3329      H3335   1.082       .  S
N3330      C3331   1.355       .  A
N3330      H3338   1.045       .  S
C3331      C3332   1.394       .  A
C3332      H3336   1.082       .  S
C3339      C3344   1.384       .  A
C3339      C3340   1.403       .  A
C3339      N3345   1.339       .  A
C3340      C3341   1.399       .  A
C3340      H3351   1.082       .  S
C3341      C3350   1.380       .  A
C3341      C3342   1.383       .  A
C3342      C3343   1.406       .  A
C3342      N3348   1.341       .  A
C3343      C3344   1.404       .  A
C3343      H3352   1.082       .  S
C3344      C3347   1.385       .  A
N3345      C3346   1.356       .  A
N3345      H3355   1.045       .  S
C3346      C3347   1.397       .  A
C3347      H3353   1.082       .  S
N3348      C3349   1.358       .  A
N3348      H3356   1.045       .  S
C3349      C3350   1.394       .  A
C3350      H3354   1.082       .  S
C3357      C3362   1.384       .  A
C3357      C3358   1.404       .  A
C3357      N3363   1.340       .  A
C3358      C3359   1.401       .  A
C3358      H3369   1.082       .  S
C3359      C3368   1.381       .  A
C3359      C3360   1.384       .  A
C3360      C3361   1.403       .  A
C3360      N3366   1.339       .  A
C3361      C3362   1.400       .  A
C3361      H3370   1.082       .  S
C3362      C3365   1.380       .  A
N3363      C3364   1.357       .  A
N3363      H3373   1.045       .  S
C3364      C3365   1.395       .  A
C3365      H3371   1.082       .  S
N3366      C3367   1.356       .  A
N3366      H3374   1.045       .  S
C3367      C3368   1.395       .  A
C3368      H3372   1.082       .  S
C3375      C3380   1.384       .  A
C3375      C3376   1.402       .  A
C3375      N3381   1.340       .  A
C3376      C3377   1.399       .  A
C3376      H3387   1.082       .  S
C3377      C3386   1.380       .  A
C3377      C3378   1.384       .  A
C3378      C3379   1.409       .  A
C3378      N3384   1.344       .  A
C3379      C3380   1.407       .  A
C3379      H3388   1.082       .  S
C3380      C3383   1.387       .  A
N3381      C3382   1.355       .  A
N3381      H3391   1.045       .  S
C3382      C3383   1.398       .  A
C3383      H3389   1.082       .  S
N3384      C3385   1.357       .  A
N3384      H3392   1.045       .  S
C3385      C3386   1.391       .  A
C3386      H3390   1.082       .  S
C3393      C3398   1.384   1_545  A
C3393      C3394   1.405       .  A
C3393      N3399   1.339       .  A
C3394      C3395   1.402       .  A
C3394      H3405   1.082       .  S
C3395      C3404   1.384       .  A
C3395      C3396   1.384   1_545  A
C3396      C3397   1.405       .  A
C3396      N3402   1.340       .  A
C3397      C3398   1.401       .  A
C3397      H3406   1.082       .  S
C3398      C3401   1.383       .  A
N3399      C3400   1.356   1_545  A
N3399      H3409   1.045       .  S
C3400      C3401   1.394       .  A
C3401      H3407   1.082       .  S
N3402      C3403   1.356       .  A
N3402      H3410   1.045       .  S
C3403      C3404   1.395   1_565  A
C3404      H3408   1.082       .  S
C3411      C3416   1.384       .  A
C3411      C3412   1.397       .  A
C3411      N3417   1.336       .  A
C3412      C3413   1.395       .  A
C3412      H3423   1.083       .  S
C3413      C3422   1.371       .  A
C3413      C3414   1.384       .  A
C3414      C3415   1.411       .  A
C3414      N3420   1.348       .  A
C3415      C3416   1.410       .  A
C3415      H3424   1.082       .  S
C3416      C3419   1.388       .  A
N3417      C3418   1.353       .  A
N3417      H3427   1.045       .  S
C3418      C3419   1.401       .  A
C3419      H3425   1.082       .  S
N3420      C3421   1.360       .  A
N3420      H3428   1.045       .  S
C3421      C3422   1.392       .  A
C3422      H3426   1.083       .  S
C3429      C3434   1.383   1_545  A
C3429      C3430   1.409       .  A
C3429      N3435   1.340       .  A
C3430      C3431   1.405       .  A
C3430      H3441   1.082       .  S
C3431      C3440   1.389       .  A
C3431      C3432   1.383   1_545  A
C3432      C3433   1.404       .  A
C3432      N3438   1.338       .  A
C3433      C3434   1.399       .  A
C3433      H3442   1.082       .  S
C3434      C3437   1.384       .  A
N3435      C3436   1.359       .  A
N3435      H3445   1.045       .  S
C3436      C3437   1.394   1_545  A
C3437      H3443   1.082       .  S
N3438      C3439   1.357       .  A
N3438      H3446   1.045       .  S
C3439      C3440   1.398   1_565  A
C3440      H3444   1.082       .  S
C3447      C3452   1.384       .  A
C3447      C3448   1.408   1_545  A
C3447      N3453   1.344       .  A
C3448      C3449   1.406       .  A
C3448      H3459   1.082       .  S
C3449      C3458   1.386       .  A
C3449      C3450   1.384       .  A
C3450      C3451   1.401       .  A
C3450      N3456   1.339       .  A
C3451      C3452   1.398   1_565  A
C3451      H3460   1.082   1_565  S
C3452      C3455   1.377       .  A
N3453      C3454   1.359       .  A
N3453      H3463   1.045       .  S
C3454      C3455   1.392       .  A
C3455      H3461   1.082       .  S
N3456      C3457   1.356       .  A
N3456      H3464   1.045       .  S
C3457      C3458   1.398       .  A
C3458      H3462   1.082       .  S
C3465      C3470   1.385       .  A
C3465      C3466   1.405       .  A
C3465      N3471   1.350       .  A
C3466      C3467   1.407       .  A
C3466      H3477   1.082       .  S
C3467      C3476   1.376       .  A
C3467      C3468   1.385       .  A
C3468      C3469   1.397       .  A
C3468      N3474   1.343       .  A
C3469      C3470   1.398       .  A
C3469      H3478   1.083       .  S
C3470      C3473   1.366       .  A
N3471      C3472   1.357       .  A
N3471      H3481   1.045       .  S
C3472      C3473   1.394       .  A
C3473      H3479   1.083       .  S
N3474      C3475   1.352       .  A
N3474      H3482   1.045       .  S
C3475      C3476   1.398       .  A
C3476      H3480   1.082       .  S
C3483      C3488   1.384       .  A
C3483      C3484   1.412       .  A
C3483      N3489   1.350       .  A
C3484      C3485   1.411       .  A
C3484      H3495   1.082       .  S
C3485      C3494   1.390       .  A
C3485      C3486   1.384       .  A
C3486      C3487   1.393       .  A
C3486      N3492   1.333       .  A
C3487      C3488   1.391       .  A
C3487      H3496   1.083       .  S
C3488      C3491   1.365       .  A
N3489      C3490   1.360       .  A
N3489      H3499   1.044       .  S
C3490      C3491   1.390       .  A
C3491      H3497   1.083       .  S
N3492      C3493   1.352       .  A
N3492      H3500   1.045       .  S
C3493      C3494   1.402       .  A
C3494      H3498   1.082       .  S
C3501      C3506   1.384       .  A
C3501      C3502   1.400       .  A
C3501      N3507   1.340       .  A
C3502      C3503   1.399       .  A
C3502      H3513   1.083       .  S
C3503      C3512   1.372       .  A
C3503      C3504   1.384       .  A
C3504      C3505   1.408       .  A
C3504      N3510   1.349       .  A
C3505      C3506   1.407       .  A
C3505      H3514   1.082       .  S
C3506      C3509   1.383       .  A
N3507      C3508   1.355       .  A
N3507      H3517   1.045       .  S
C3508      C3509   1.398       .  A
C3509      H3515   1.082       .  S
N3510      C3511   1.358       .  A
N3510      H3518   1.044       .  S
C3511      C3512   1.395       .  A
C3512      H3516   1.083       .  S
C3519      C3524   1.385       .  A
C3519      C3520   1.403       .  A
C3519      N3525   1.338       .  A
C3520      C3521   1.400       .  A
C3520      H3531   1.082       .  S
C3521      C3530   1.380       .  A
C3521      C3522   1.385   1_545  A
C3522      C3523   1.401       .  A
C3522      N3528   1.338       .  A
C3523      C3524   1.398   1_565  A
C3523      H3532   1.082       .  S
C3524      C3527   1.378   1_545  A
N3525      C3526   1.355       .  A
N3525      H3535   1.045       .  S
C3526      C3527   1.390   1_545  A
C3527      H3533   1.082       .  S
N3528      C3529   1.354       .  A
N3528      H3536   1.045       .  S
C3529      C3530   1.394   1_565  A
C3530      H3534   1.082       .  S
C3537      C3542   1.384   1_565  A
C3537      C3538   1.403       .  A
C3537      N3543   1.348       .  A
C3538      C3539   1.405       .  A
C3538      H3549   1.082       .  S
C3539      C3548   1.374       .  A
C3539      C3540   1.383       .  A
C3540      C3541   1.406   1_565  A
C3540      N3546   1.350       .  A
C3541      C3542   1.408       .  A
C3541      H3550   1.082       .  S
C3542      C3545   1.377       .  A
N3543      C3544   1.355   1_565  A
N3543      H3553   1.045       .  S
C3544      C3545   1.399       .  A
C3545      H3551   1.082       .  S
N3546      C3547   1.358       .  A
N3546      H3554   1.045       .  S
C3547      C3548   1.399       .  A
C3548      H3552   1.083       .  S
C3555      C3560   1.384       .  A
C3555      C3556   1.403       .  A
C3555      N3561   1.337   1_545  A
C3556      C3557   1.399       .  A
C3556      H3567   1.082   1_545  S
C3557      C3566   1.381       .  A
C3557      C3558   1.384       .  A
C3558      C3559   1.408       .  A
C3558      N3564   1.342       .  A
C3559      C3560   1.405       .  A
C3559      H3568   1.082       .  S
C3560      C3563   1.388       .  A
N3561      C3562   1.356   1_565  A
N3561      H3571   1.045       .  S
C3562      C3563   1.398       .  A
C3563      H3569   1.082       .  S
N3564      C3565   1.358       .  A
N3564      H3572   1.045       .  S
C3565      C3566   1.394       .  A
C3566      H3570   1.082   1_545  S
C3573      C3578   1.384       .  A
C3573      C3574   1.409       .  A
C3573      N3579   1.350       .  A
C3574      C3575   1.409       .  A
C3574      H3585   1.082       .  S
C3575      C3584   1.384       .  A
C3575      C3576   1.384       .  A
C3576      C3577   1.397       .  A
C3576      N3582   1.338       .  A
C3577      C3578   1.396       .  A
C3577      H3586   1.083       .  S
C3578      C3581   1.369       .  A
N3579      C3580   1.359       .  A
N3579      H3589   1.044       .  S
C3580      C3581   1.393       .  A
C3581      H3587   1.083       .  S
N3582      C3583   1.354       .  A
N3582      H3590   1.045       .  S
C3583      C3584   1.399       .  A
C3584      H3588   1.082       .  S
C3591      C3596   1.384   1_565  A
C3591      C3592   1.400       .  A
C3591      N3597   1.341       .  A
C3592      C3593   1.399       .  A
C3592      H3603   1.083       .  S
C3593      C3602   1.373       .  A
C3593      C3594   1.384   1_565  A
C3594      C3595   1.411       .  A
C3594      N3600   1.351       .  A
C3595      C3596   1.410       .  A
C3595      H3604   1.082       .  S
C3596      C3599   1.386       .  A
N3597      C3598   1.354       .  A
N3597      H3607   1.045       .  S
C3598      C3599   1.398   1_565  A
C3599      H3605   1.082       .  S
N3600      C3601   1.359   1_545  A
N3600      H3608   1.045       .  S
C3601      C3602   1.393       .  A
C3602      H3606   1.083       .  S
C3609      C3614   1.385       .  A
C3609      C3610   1.406       .  A
C3609      N3615   1.347       .  A
C3610      C3611   1.406       .  A
C3610      H3621   1.082       .  S
C3611      C3620   1.380       .  A
C3611      C3612   1.385       .  A
C3612      C3613   1.396       .  A
C3612      N3618   1.338       .  A
C3613      C3614   1.395       .  A
C3613      H3622   1.083       .  S
C3614      C3617   1.368       .  A
N3615      C3616   1.356       .  A
N3615      H3625   1.045       .  S
C3616      C3617   1.391       .  A
C3617      H3623   1.083       .  S
N3618      C3619   1.352       .  A
N3618      H3626   1.045       .  S
C3619      C3620   1.397       .  A
C3620      H3624   1.082       .  S
C3627      C3632   1.385       .  A
C3627      C3628   1.406       .  A
C3627      N3633   1.345       .  A
C3628      C3629   1.406       .  A
C3628      H3639   1.082       .  S
C3629      C3638   1.383       .  A
C3629      C3630   1.386       .  A
C3630      C3631   1.395       .  A
C3630      N3636   1.335       .  A
C3631      C3632   1.393       .  A
C3631      H3640   1.083       .  S
C3632      C3635   1.367       .  A
N3633      C3634   1.357       .  A
N3633      H3643   1.045       .  S
C3634      C3635   1.390       .  A
C3635      H3641   1.083       .  S
N3636      C3637   1.351       .  A
N3636      H3644   1.045       .  S
C3637      C3638   1.396       .  A
C3638      H3642   1.082       .  S
C3645      C3650   1.384       .  A
C3645      C3646   1.404       .  A
C3645      N3651   1.348       .  A
C3646      C3647   1.406       .  A
C3646      H3657   1.082       .  S
C3647      C3656   1.376       .  A
C3647      C3648   1.384       .  A
C3648      C3649   1.403       .  A
C3648      N3654   1.347       .  A
C3649      C3650   1.404       .  A
C3649      H3658   1.082       .  S
C3650      C3653   1.375       .  A
N3651      C3652   1.356       .  A
N3651      H3661   1.045       .  S
C3652      C3653   1.397       .  A
C3653      H3659   1.083       .  S
N3654      C3655   1.356       .  A
N3654      H3662   1.045       .  S
C3655      C3656   1.399       .  A
C3656      H3660   1.083       .  S
C3663      C3668   1.384       .  A
C3663      C3664   1.404       .  A
C3663      N3669   1.348       .  A
C3664      C3665   1.406       .  A
C3664      H3675   1.082       .  S
C3665      C3674   1.375       .  A
C3665      C3666   1.384       .  A
C3666      C3667   1.404       .  A
C3666      N3672   1.348       .  A
C3667      C3668   1.405       .  A
C3667      H3676   1.082       .  S
C3668      C3671   1.376       .  A
N3669      C3670   1.357       .  A
N3669      H3679   1.045       .  S
C3670      C3671   1.398       .  A
C3671      H3677   1.082       .  S
N3672      C3673   1.356       .  A
N3672      H3680   1.045       .  S
C3673      C3674   1.398       .  A
C3674      H3678   1.083       .  S
C3681      C3686   1.383       .  A
C3681      C3682   1.408       .  A
C3681      N3687   1.341       .  A
C3682      C3683   1.405       .  A
C3682      H3693   1.082       .  S
C3683      C3692   1.388       .  A
C3683      C3684   1.383       .  A
C3684      C3685   1.407       .  A
C3684      N3690   1.340       .  A
C3685      C3686   1.402       .  A
C3685      H3694   1.082       .  S
C3686      C3689   1.386       .  A
N3687      C3688   1.359       .  A
N3687      H3697   1.045       .  S
C3688      C3689   1.395       .  A
C3689      H3695   1.082       .  S
N3690      C3691   1.358       .  A
N3690      H3698   1.045       .  S
C3691      C3692   1.397       .  A
C3692      H3696   1.082       .  S
C3699      C3704   1.385       .  A
C3699      C3700   1.393       .  A
C3699      N3705   1.333       .  A
C3700      C3701   1.391       .  A
C3700      H3711   1.083       .  S
C3701      C3710   1.365       .  A
C3701      C3702   1.384       .  A
C3702      C3703   1.409       .  A
C3702      N3708   1.347       .  A
C3703      C3704   1.409       .  A
C3703      H3712   1.082       .  S
C3704      C3707   1.387       .  A
N3705      C3706   1.351       .  A
N3705      H3715   1.045       .  S
C3706      C3707   1.399       .  A
C3707      H3713   1.082       .  S
N3708      C3709   1.358       .  A
N3708      H3716   1.044       .  S
C3709      C3710   1.390       .  A
C3710      H3714   1.083       .  S
C3717      C3722   1.384       .  A
C3717      C3718   1.410       .  A
C3717      N3723   1.349       .  A
C3718      C3719   1.409       .  A
C3718      H3729   1.082       .  S
C3719      C3728   1.388       .  A
C3719      C3720   1.384       .  A
C3720      C3721   1.402       .  A
C3720      N3726   1.341       .  A
C3721      C3722   1.400       .  A
C3721      H3730   1.083       .  S
C3722      C3725   1.376       .  A
N3723      C3724   1.358       .  A
N3723      H3733   1.044       .  S
C3724      C3725   1.395       .  A
C3725      H3731   1.083       .  S
N3726      C3727   1.354       .  A
N3726      H3734   1.045       .  S
C3727      C3728   1.399       .  A
C3728      H3732   1.082       .  S
C3735      C3740   1.385       .  A
C3735      C3736   1.403       .  A
C3735      N3741   1.348       .  A
C3736      C3737   1.404       .  A
C3736      H3747   1.082       .  S
C3737      C3746   1.372   1_655  A
C3737      C3738   1.384   1_655  A
C3738      C3739   1.401       .  A
C3738      N3744   1.347       .  A
C3739      C3740   1.403   1_455  A
C3739      H3748   1.082       .  S
C3740      C3743   1.371       .  A
N3741      C3742   1.355       .  A
N3741      H3751   1.045       .  S
C3742      C3743   1.396       .  A
C3743      H3749   1.083   1_655  S
N3744      C3745   1.355       .  A
N3744      H3752   1.045       .  S
C3745      C3746   1.397       .  A
C3746      H3750   1.083   1_455  S
C3753      C3758   1.385       .  A
C3753      C3754   1.406       .  A
C3753      N3759   1.346       .  A
C3754      C3755   1.405       .  A
C3754      H3765   1.082       .  S
C3755      C3764   1.382       .  A
C3755      C3756   1.385       .  A
C3756      C3757   1.396       .  A
C3756      N3762   1.336       .  A
C3757      C3758   1.394       .  A
C3757      H3766   1.083       .  S
C3758      C3761   1.368       .  A
N3759      C3760   1.357       .  A
N3759      H3769   1.045       .  S
C3760      C3761   1.391       .  A
C3761      H3767   1.083       .  S
N3762      C3763   1.352       .  A
N3762      H3770   1.045       .  S
C3763      C3764   1.395       .  A
C3764      H3768   1.082       .  S
C3771      C3776   1.385       .  A
C3771      C3772   1.401       .  A
C3771      N3777   1.347       .  A
C3772      C3773   1.402       .  A
C3772      H3783   1.082       .  S
C3773      C3782   1.372       .  A
C3773      C3774   1.385       .  A
C3774      C3775   1.405       .  A
C3774      N3780   1.348       .  A
C3775      C3776   1.406       .  A
C3775      H3784   1.082       .  S
C3776      C3779   1.375       .  A
N3777      C3778   1.354       .  A
N3777      H3787   1.044       .  S
C3778      C3779   1.400       .  A
C3779      H3785   1.083       .  S
N3780      C3781   1.357       .  A
N3780      H3788   1.045       .  S
C3781      C3782   1.395       .  A
C3782      H3786   1.083       .  S
C3789      C3794   1.383       .  A
C3789      C3790   1.407       .  A
C3789      N3795   1.341       .  A
C3790      C3791   1.403       .  A
C3790      H3801   1.082       .  S
C3791      C3800   1.385       .  A
C3791      C3792   1.383       .  A
C3792      C3793   1.405       .  A
C3792      N3798   1.341       .  A
C3793      C3794   1.402       .  A
C3793      H3802   1.082       .  S
C3794      C3797   1.384       .  A
N3795      C3796   1.358       .  A
N3795      H3805   1.045       .  S
C3796      C3797   1.396       .  A
C3797      H3803   1.082       .  S
N3798      C3799   1.357       .  A
N3798      H3806   1.045       .  S
C3799      C3800   1.398       .  A
C3800      H3804   1.082       .  S
C3807      C3812   1.385       .  A
C3807      C3808   1.407       .  A
C3807      N3813   1.344       .  A
C3808      C3809   1.405       .  A
C3808      H3819   1.082       .  S
C3809      C3818   1.385       .  A
C3809      C3810   1.384       .  A
C3810      C3811   1.403       .  A
C3810      N3816   1.340       .  A
C3811      C3812   1.400       .  A
C3811      H3820   1.082       .  S
C3812      C3815   1.380       .  A
N3813      C3814   1.356       .  A
N3813      H3823   1.045   1_455  S
C3814      C3815   1.392       .  A
C3815      H3821   1.082       .  S
N3816      C3817   1.355       .  A
N3816      H3824   1.045       .  S
C3817      C3818   1.397       .  A
C3818      H3822   1.082       .  S
C3825      C3830   1.383       .  A
C3825      C3826   1.405       .  A
C3825      N3831   1.338       .  A
C3826      C3827   1.401       .  A
C3826      H3837   1.082       .  S
C3827      C3836   1.384       .  A
C3827      C3828   1.383       .  A
C3828      C3829   1.406       .  A
C3828      N3834   1.339       .  A
C3829      C3830   1.402       .  A
C3829      H3838   1.082       .  S
C3830      C3833   1.386       .  A
N3831      C3832   1.357       .  A
N3831      H3841   1.045       .  S
C3832      C3833   1.395       .  A
C3833      H3839   1.082       .  S
N3834      C3835   1.358       .  A
N3834      H3842   1.045       .  S
C3835      C3836   1.394       .  A
C3836      H3840   1.082       .  S
C3843      C3848   1.385       .  A
C3843      C3844   1.396       .  A
C3843      N3849   1.337       .  A
C3844      C3845   1.395       .  A
C3844      H3855   1.083       .  S
C3845      C3854   1.368       .  A
C3845      C3846   1.384       .  A
C3846      C3847   1.410       .  A
C3846      N3852   1.351       .  A
C3847      C3848   1.410       .  A
C3847      H3856   1.082       .  S
C3848      C3851   1.387       .  A
N3849      C3850   1.353       .  A
N3849      H3859   1.045       .  S
C3850      C3851   1.400       .  A
C3851      H3857   1.082       .  S
N3852      C3853   1.359       .  A
N3852      H3860   1.044       .  S
C3853      C3854   1.392       .  A
C3854      H3858   1.083       .  S
C3861      C3866   1.384       .  A
C3861      C3862   1.410       .  A
C3861      N3867   1.351       .  A
C3862      C3863   1.410       .  A
C3862      H3873   1.082       .  S
C3863      C3872   1.385       .  A
C3863      C3864   1.384       .  A
C3864      C3865   1.398       .  A
C3864      N3870   1.339       .  A
C3865      C3866   1.397       .  A
C3865      H3874   1.083       .  S
C3866      C3869   1.370       .  A
N3867      C3868   1.359       .  A
N3867      H3877   1.044       .  S
C3868      C3869   1.394       .  A
C3869      H3875   1.083       .  S
N3870      C3871   1.354       .  A
N3870      H3878   1.045       .  S
C3871      C3872   1.400       .  A
C3872      H3876   1.082       .  S
C3879      C3884   1.384       .  A
C3879      C3880   1.406       .  A
C3879      N3885   1.338       .  A
C3880      C3881   1.401       .  A
C3880      H3891   1.082       .  S
C3881      C3890   1.386       .  A
C3881      C3882   1.384       .  A
C3882      C3883   1.402       .  A
C3882      N3888   1.335       .  A
C3883      C3884   1.397       .  A
C3883      H3892   1.082       .  S
C3884      C3887   1.381       .  A
N3885      C3886   1.357       .  A
N3885      H3895   1.045       .  S
C3886      C3887   1.392       .  A
C3887      H3893   1.082       .  S
N3888      C3889   1.356       .  A
N3888      H3896   1.045       .  S
C3889      C3890   1.395       .  A
C3890      H3894   1.082       .  S
C3897      C3902   1.385       .  A
C3897      C3898   1.407       .  A
C3897      N3903   1.347       .  A
C3898      C3899   1.406       .  A
C3898      H3909   1.082       .  S
C3899      C3908   1.383       .  A
C3899      C3900   1.385       .  A
C3900      C3901   1.395       .  A
C3900      N3906   1.336       .  A
C3901      C3902   1.394       .  A
C3901      H3910   1.083       .  S
C3902      C3905   1.367       .  A
N3903      C3904   1.357       .  A
N3903      H3913   1.044       .  S
C3904      C3905   1.392       .  A
C3905      H3911   1.083       .  S
N3906      C3907   1.352       .  A
N3906      H3914   1.045       .  S
C3907      C3908   1.396       .  A
C3908      H3912   1.082       .  S
C3915      C3920   1.384       .  A
C3915      C3916   1.404       .  A
C3915      N3921   1.339       .  A
C3916      C3917   1.400       .  A
C3916      H3927   1.082       .  S
C3917      C3926   1.381       .  A
C3917      C3918   1.384       .  A
C3918      C3919   1.402       .  A
C3918      N3924   1.338       .  A
C3919      C3920   1.399       .  A
C3919      H3928   1.082       .  S
C3920      C3923   1.380       .  A
N3921      C3922   1.357       .  A
N3921      H3931   1.045       .  S
C3922      C3923   1.394       .  A
C3923      H3929   1.082       .  S
N3924      C3925   1.356       .  A
N3924      H3932   1.045       .  S
C3925      C3926   1.395       .  A
C3926      H3930   1.082       .  S
C3933      C3938   1.384       .  A
C3933      C3934   1.406       .  A
C3933      N3939   1.340       .  A
C3934      C3935   1.403       .  A
C3934      H3945   1.082       .  S
C3935      C3944   1.385       .  A
C3935      C3936   1.384       .  A
C3936      C3937   1.404       .  A
C3936      N3942   1.339       .  A
C3937      C3938   1.400       .  A
C3937      H3946   1.082       .  S
C3938      C3941   1.381       .  A
N3939      C3940   1.357       .  A
N3939      H3949   1.045       .  S
C3940      C3941   1.394       .  A
C3941      H3947   1.082       .  S
N3942      C3943   1.357       .  A
N3942      H3950   1.045       .  S
C3943      C3944   1.397       .  A
C3944      H3948   1.082       .  S
C3951      C3956   1.385       .  A
C3951      C3952   1.393       .  A
C3951      N3957   1.334       .  A
C3952      C3953   1.392       .  A
C3952      H3963   1.083       .  S
C3953      C3962   1.364       .  A
C3953      C3954   1.383       .  A
C3954      C3955   1.413       .  A
C3954      N3960   1.353       .  A
C3955      C3956   1.414       .  A
C3955      H3964   1.082       .  S
C3956      C3959   1.390       .  A
N3957      C3958   1.352       .  A
N3957      H3967   1.045       .  S
C3958      C3959   1.402       .  A
C3959      H3965   1.082       .  S
N3960      C3961   1.361       .  A
N3960      H3968   1.044       .  S
C3961      C3962   1.391       .  A
C3962      H3966   1.083       .  S
C3969      C3974   1.384       .  A
C3969      C3970   1.408       .  A
C3969      N3975   1.350       .  A
C3970      C3971   1.408       .  A
C3970      H3981   1.082       .  S
C3971      C3980   1.383       .  A
C3971      C3972   1.385       .  A
C3972      C3973   1.395       .  A
C3972      N3978   1.336       .  A
C3973      C3974   1.394       .  A
C3973      H3982   1.083       .  S
C3974      C3977   1.365       .  A
N3975      C3976   1.358       .  A
N3975      H3985   1.044       .  S
C3976      C3977   1.392       .  A
C3977      H3983   1.083       .  S
N3978      C3979   1.352       .  A
N3978      H3986   1.045       .  S
C3979      C3980   1.398       .  A
C3980      H3984   1.082       .  S
C3987      C3992   1.383       .  A
C3987      C3988   1.415       .  A
C3987      N3993   1.354       .  A
C3988      C3989   1.415       .  A
C3988      H3999   1.082       .  S
C3989      C3998   1.393       .  A
C3989      C3990   1.384       .  A
C3990      C3991   1.395       .  A
C3990      N3996   1.335       .  A
C3991      C3992   1.393       .  A
C3991      H4000   1.083       .  S
C3992      C3995   1.366       .  A
N3993      C3994   1.362       .  A
N3993      H4003   1.044       .  S
C3994      C3995   1.392       .  A
C3995      H4001   1.083       .  S
N3996      C3997   1.353       .  A
N3996      H4004   1.045       .  S
C3997      C3998   1.404       .  A
C3998      H4002   1.082       .  S
C4005      C4010   1.385       .  A
C4005      C4006   1.407       .  A
C4005      N4011   1.346       .  A
C4006      C4007   1.406       .  A
C4006      H4017   1.082       .  S
C4007      C4016   1.383       .  A
C4007      C4008   1.385       .  A
C4008      C4009   1.398       .  A
C4008      N4014   1.338       .  A
C4009      C4010   1.396       .  A
C4009      H4018   1.083       .  S
C4010      C4013   1.371       .  A
N4011      C4012   1.356       .  A
N4011      H4021   1.045       .  S
C4012      C4013   1.391       .  A
C4013      H4019   1.083       .  S
N4014      C4015   1.353       .  A
N4014      H4022   1.045       .  S
C4015      C4016   1.396       .  A
C4016      H4020   1.082       .  S
C4023      C4028   1.385       .  A
C4023      C4024   1.405       .  A
C4023      N4029   1.345       .  A
C4024      C4025   1.405       .  A
C4024      H4035   1.082       .  S
C4025      C4034   1.380       .  A
C4025      C4026   1.386       .  A
C4026      C4027   1.395       .  A
C4026      N4032   1.336       .  A
C4027      C4028   1.393       .  A
C4027      H4036   1.083       .  S
C4028      C4031   1.367       .  A
N4029      C4030   1.357       .  A
N4029      H4039   1.045       .  S
C4030      C4031   1.390       .  A
C4031      H4037   1.083       .  S
N4032      C4033   1.351       .  A
N4032      H4040   1.045       .  S
C4033      C4034   1.396       .  A
C4034      H4038   1.082       .  S
C4041      C4046   1.385       .  A
C4041      C4042   1.402       .  A
C4041      N4047   1.346       .  A
C4042      C4043   1.403       .  A
C4042      H4053   1.082       .  S
C4043      C4052   1.373       .  A
C4043      C4044   1.385       .  A
C4044      C4045   1.402       .  A
C4044      N4050   1.346       .  A
C4045      C4046   1.403       .  A
C4045      H4054   1.082       .  S
C4046      C4049   1.372       .  A
N4047      C4048   1.355       .  A
N4047      H4057   1.045       .  S
C4048      C4049   1.396       .  A
C4049      H4055   1.083       .  S
N4050      C4051   1.355       .  A
N4050      H4058   1.045       .  S
C4051      C4052   1.396       .  A
C4052      H4056   1.083       .  S
C4059      C4064   1.385       .  A
C4059      C4060   1.400       .  A
C4059      N4065   1.346       .  A
C4060      C4061   1.402   1_455  A
C4060      H4071   1.082       .  S
C4061      C4070   1.370       .  A
C4061      C4062   1.385       .  A
C4062      C4063   1.402   1_655  A
C4062      N4068   1.347       .  A
C4063      C4064   1.404       .  A
C4063      H4072   1.082       .  S
C4064      C4067   1.371       .  A
N4065      C4066   1.354       .  A
N4065      H4075   1.045       .  S
C4066      C4067   1.396       .  A
C4067      H4073   1.083       .  S
N4068      C4069   1.356       .  A
N4068      H4076   1.045       .  S
C4069      C4070   1.396       .  A
C4070      H4074   1.083       .  S
C4077      C4082   1.383       .  A
C4077      C4078   1.413       .  A
C4077      N4083   1.354       .  A
C4078      C4079   1.414       .  A
C4078      H4089   1.082       .  S
C4079      C4088   1.389       .  A
C4079      C4080   1.385       .  A
C4080      C4081   1.394       .  A
C4080      N4086   1.337       .  A
C4081      C4082   1.393       .  A
C4081      H4090   1.083       .  S
C4082      C4085   1.364       .  A
N4083      C4084   1.361       .  A
N4083      H4093   1.044       .  S
C4084      C4085   1.392       .  A
C4085      H4091   1.083       .  S
N4086      C4087   1.352       .  A
N4086      H4094   1.045       .  S
C4087      C4088   1.402       .  A
C4088      H4092   1.082       .  S
C4095      C4100   1.387       .  A
C4095      C4096   1.399       .  A
C4095      N4101   1.342       .  A
C4096      C4097   1.399       .  A
C4096      H4107   1.083       .  S
C4097      C4106   1.370       .  A
C4097      C4098   1.385       .  A
C4098      C4099   1.400       .  A
C4098      N4104   1.343       .  A
C4099      C4100   1.401       .  A
C4099      H4108   1.082       .  S
C4100      C4103   1.372       .  A
N4101      C4102   1.351       .  A
N4101      H4111   1.045       .  S
C4102      C4103   1.392       .  A
C4103      H4109   1.083       .  S
N4104      C4105   1.353       .  A
N4104      H4112   1.045       .  S
C4105      C4106   1.393       .  A
C4106      H4110   1.083       .  S
C4113      C4118   1.384   1_565  A
C4113      C4114   1.404       .  A
C4113      N4119   1.350       .  A
C4114      C4115   1.407       .  A
C4114      H4125   1.082       .  S
C4115      C4124   1.374   1_655  A
C4115      C4116   1.385   1_665  A
C4116      C4117   1.402       .  A
C4116      N4122   1.349       .  A
C4117      C4118   1.404   1_455  A
C4117      H4126   1.082       .  S
C4118      C4121   1.371       .  A
N4119      C4120   1.356   1_565  A
N4119      H4129   1.044       .  S
C4120      C4121   1.397       .  A
C4121      H4127   1.083       .  S
N4122      C4123   1.355   1_545  A
N4122      H4130   1.044       .  S
C4123      C4124   1.399       .  A
C4124      H4128   1.083   1_455  S
C4131      C4136   1.384   1_565  A
C4131      C4132   1.404       .  A
C4131      N4137   1.338       .  A
C4132      C4133   1.400       .  A
C4132      H4143   1.082       .  S
C4133      C4142   1.383       .  A
C4133      C4134   1.384   1_565  A
C4134      C4135   1.404       .  A
C4134      N4140   1.337       .  A
C4135      C4136   1.399       .  A
C4135      H4144   1.082       .  S
C4136      C4139   1.382       .  A
N4137      C4138   1.357       .  A
N4137      H4147   1.045       .  S
C4138      C4139   1.393   1_565  A
C4139      H4145   1.082       .  S
N4140      C4141   1.357       .  A
N4140      H4148   1.045       .  S
C4141      C4142   1.394   1_545  A
C4142      H4146   1.082       .  S
C4149      C4154   1.383       .  A
C4149      C4150   1.407       .  A
C4149      N4155   1.341       .  A
C4150      C4151   1.404       .  A
C4150      H4161   1.082       .  S
C4151      C4160   1.385       .  A
C4151      C4152   1.384       .  A
C4152      C4153   1.403       .  A
C4152      N4158   1.338       .  A
C4153      C4154   1.399       .  A
C4153      H4162   1.082       .  S
C4154      C4157   1.380       .  A
N4155      C4156   1.358       .  A
N4155      H4165   1.045       .  S
C4156      C4157   1.393       .  A
C4157      H4163   1.082       .  S
N4158      C4159   1.357       .  A
N4158      H4166   1.045       .  S
C4159      C4160   1.397       .  A
C4160      H4164   1.082       .  S
C4167      C4172   1.384       .  A
C4167      C4168   1.405       .  A
C4167      N4173   1.340       .  A
C4168      C4169   1.402       .  A
C4168      H4179   1.082       .  S
C4169      C4178   1.384       .  A
C4169      C4170   1.384       .  A
C4170      C4171   1.404       .  A
C4170      N4176   1.339       .  A
C4171      C4172   1.401       .  A
C4171      H4180   1.082       .  S
C4172      C4175   1.382       .  A
N4173      C4174   1.357       .  A
N4173      H4183   1.045       .  S
C4174      C4175   1.395       .  A
C4175      H4181   1.082       .  S
N4176      C4177   1.357       .  A
N4176      H4184   1.045       .  S
C4177      C4178   1.397       .  A
C4178      H4182   1.082       .  S
C4185      C4190   1.383   1_565  A
C4185      C4186   1.405       .  A
C4185      N4191   1.337       .  A
C4186      C4187   1.400       .  A
C4186      H4197   1.082       .  S
C4187      C4196   1.385       .  A
C4187      C4188   1.383   1_565  A
C4188      C4189   1.406       .  A
C4188      N4194   1.337       .  A
C4189      C4190   1.401       .  A
C4189      H4198   1.082       .  S
C4190      C4193   1.386       .  A
N4191      C4192   1.357       .  A
N4191      H4201   1.045       .  S
C4192      C4193   1.395   1_565  A
C4193      H4199   1.082       .  S
N4194      C4195   1.358       .  A
N4194      H4202   1.045       .  S
C4195      C4196   1.394   1_545  A
C4196      H4200   1.082       .  S
C4203      C4208   1.384   1_565  A
C4203      C4204   1.410       .  A
C4203      N4209   1.349       .  A
C4204      C4205   1.410       .  A
C4204      H4215   1.082       .  S
C4205      C4214   1.388       .  A
C4205      C4206   1.384   1_565  A
C4206      C4207   1.403       .  A
C4206      N4212   1.342       .  A
C4207      C4208   1.401       .  A
C4207      H4216   1.082       .  S
C4208      C4211   1.377       .  A
N4209      C4210   1.358   1_565  A
N4209      H4219   1.045       .  S
C4210      C4211   1.394       .  A
C4211      H4217   1.083       .  S
N4212      C4213   1.356       .  A
N4212      H4220   1.045       .  S
C4213      C4214   1.399   1_545  A
C4214      H4218   1.082       .  S
C4221      C4226   1.383   1_565  A
C4221      C4222   1.406       .  A
C4221      N4227   1.352       .  A
C4222      C4223   1.409       .  A
C4222      H4233   1.082       .  S
C4223      C4232   1.377       .  A
C4223      C4224   1.384   1_565  A
C4224      C4225   1.403       .  A
C4224      N4230   1.349       .  A
C4225      C4226   1.405       .  A
C4225      H4234   1.082       .  S
C4226      C4229   1.372       .  A
N4227      C4228   1.358   1_565  A
N4227      H4237   1.045       .  S
C4228      C4229   1.398       .  A
C4229      H4235   1.083       .  S
N4230      C4231   1.356   1_545  A
N4230      H4238   1.045       .  S
C4231      C4232   1.400       .  A
C4232      H4236   1.083       .  S
C4239      C4244   1.384       .  A
C4239      C4240   1.402       .  A
C4239      N4245   1.347       .  A
C4240      C4241   1.404       .  A
C4240      H4251   1.082       .  S
C4241      C4250   1.374       .  A
C4241      C4242   1.384       .  A
C4242      C4243   1.405       .  A
C4242      N4248   1.349       .  A
C4243      C4244   1.407       .  A
C4243      H4252   1.082       .  S
C4244      C4247   1.376       .  A
N4245      C4246   1.355       .  A
N4245      H4255   1.045       .  S
C4246      C4247   1.399       .  A
C4247      H4253   1.083       .  S
N4248      C4249   1.357       .  A
N4248      H4256   1.045       .  S
C4249      C4250   1.397       .  A
C4250      H4254   1.082       .  S
C4257      C4262   1.384       .  A
C4257      C4258   1.402       .  A
C4257      N4263   1.345       .  A
C4258      C4259   1.403   1_565  A
C4258      H4269   1.082       .  S
C4259      C4268   1.374       .  A
C4259      C4260   1.384   1_545  A
C4260      C4261   1.404       .  A
C4260      N4266   1.347   1_565  A
C4261      C4262   1.405       .  A
C4261      H4270   1.082       .  S
C4262      C4265   1.377       .  A
N4263      C4264   1.355       .  A
N4263      H4273   1.044       .  S
C4264      C4265   1.399       .  A
C4265      H4271   1.083       .  S
N4266      C4267   1.356       .  A
N4266      H4274   1.045   1_545  S
C4267      C4268   1.397       .  A
C4268      H4272   1.083       .  S
C4275      C4280   1.385       .  A
C4275      C4276   1.404       .  A
C4275      N4281   1.340       .  A
C4276      C4277   1.401       .  A
C4276      H4287   1.082       .  S
C4277      C4286   1.381       .  A
C4277      C4278   1.385       .  A
C4278      C4279   1.402       .  A
C4278      N4284   1.338       .  A
C4279      C4280   1.399       .  A
C4279      H4288   1.082       .  S
C4280      C4283   1.380       .  A
N4281      C4282   1.356       .  A
N4281      H4291   1.045       .  S
C4282      C4283   1.393       .  A
C4283      H4289   1.082       .  S
N4284      C4285   1.353       .  A
N4284      H4292   1.045       .  S
C4285      C4286   1.393       .  A
C4286      H4290   1.082       .  S
C4293      C4298   1.383       .  A
C4293      C4294   1.405       .  A
C4293      N4299   1.339       .  A
C4294      C4295   1.402       .  A
C4294      H4305   1.082       .  S
C4295      C4304   1.385       .  A
C4295      C4296   1.383       .  A
C4296      C4297   1.408       .  A
C4296      N4302   1.341       .  A
C4297      C4298   1.404       .  A
C4297      H4306   1.082       .  S
C4298      C4301   1.387       .  A
N4299      C4300   1.358       .  A
N4299      H4309   1.045       .  S
C4300      C4301   1.397       .  A
C4301      H4307   1.082       .  S
N4302      C4303   1.359       .  A
N4302      H4310   1.045       .  S
C4303      C4304   1.395       .  A
C4304      H4308   1.082       .  S
C4311      C4316   1.384       .  A
C4311      C4312   1.394       .  A
C4311      N4317   1.334       .  A
C4312      C4313   1.392       .  A
C4312      H4323   1.083       .  S
C4313      C4322   1.367       .  A
C4313      C4314   1.384       .  A
C4314      C4315   1.413       .  A
C4314      N4320   1.350       .  A
C4315      C4316   1.411       .  A
C4315      H4324   1.082       .  S
C4316      C4319   1.390       .  A
N4317      C4318   1.352       .  A
N4317      H4327   1.045       .  S
C4318      C4319   1.402       .  A
C4319      H4325   1.082       .  S
N4320      C4321   1.360       .  A
N4320      H4328   1.045       .  S
C4321      C4322   1.390       .  A
C4322      H4326   1.083       .  S
C4329      C4334   1.385       .  A
C4329      C4330   1.402       .  A
C4329      N4335   1.347       .  A
C4330      C4331   1.404       .  A
C4330      H4341   1.082       .  S
C4331      C4340   1.372       .  A
C4331      C4332   1.385       .  A
C4332      C4333   1.400       .  A
C4332      N4338   1.346       .  A
C4333      C4334   1.402       .  A
C4333      H4342   1.082       .  S
C4334      C4337   1.369       .  A
N4335      C4336   1.355       .  A
N4335      H4345   1.045       .  S
C4336      C4337   1.396       .  A
C4337      H4343   1.083       .  S
N4338      C4339   1.354       .  A
N4338      H4346   1.044       .  S
C4339      C4340   1.398       .  A
C4340      H4344   1.083       .  S
C4347      C4352   1.385       .  A
C4347      C4348   1.403       .  A
C4347      N4353   1.349       .  A
C4348      C4349   1.405       .  A
C4348      H4359   1.082       .  S
C4349      C4358   1.373       .  A
C4349      C4350   1.385       .  A
C4350      C4351   1.401       .  A
C4350      N4356   1.347       .  A
C4351      C4352   1.403       .  A
C4351      H4360   1.082       .  S
C4352      C4355   1.370       .  A
N4353      C4354   1.356       .  A
N4353      H4363   1.045       .  S
C4354      C4355   1.397       .  A
C4355      H4361   1.083       .  S
N4356      C4357   1.355       .  A
N4356      H4364   1.045       .  S
C4357      C4358   1.397       .  A
C4358      H4362   1.082       .  S
C4365      C4370   1.384       .  A
C4365      C4366   1.408       .  A
C4365      N4371   1.351       .  A
C4366      C4367   1.409       .  A
C4366      H4377   1.082       .  S
C4367      C4376   1.380       .  A
C4367      C4368   1.384       .  A
C4368      C4369   1.401       .  A
C4368      N4374   1.346       .  A
C4369      C4370   1.403       .  A
C4369      H4378   1.082       .  S
C4370      C4373   1.373       .  A
N4371      C4372   1.359       .  A
N4371      H4381   1.045       .  S
C4372      C4373   1.396       .  A
C4373      H4379   1.083       .  S
N4374      C4375   1.354       .  A
N4374      H4382   1.045       .  S
C4375      C4376   1.400       .  A
C4376      H4380   1.082       .  S
C4383      C4388   1.383       .  A
C4383      C4384   1.410       .  A
C4383      N4389   1.350       .  A
C4384      C4385   1.410       .  A
C4384      H4395   1.082       .  S
C4385      C4394   1.388       .  A
C4385      C4386   1.384       .  A
C4386      C4387   1.398       .  A
C4386      N4392   1.336       .  A
C4387      C4388   1.396       .  A
C4387      H4396   1.083       .  S
C4388      C4391   1.370       .  A
N4389      C4390   1.359       .  A
N4389      H4399   1.044       .  S
C4390      C4391   1.394       .  A
C4391      H4397   1.083       .  S
N4392      C4393   1.354       .  A
N4392      H4400   1.045       .  S
C4393      C4394   1.400       .  A
C4394      H4398   1.082       .  S
C4401      C4406   1.384       .  A
C4401      C4402   1.403       .  A
C4401      N4407   1.337       .  A
C4402      C4403   1.399       .  A
C4402      H4413   1.082       .  S
C4403      C4412   1.382       .  A
C4403      C4404   1.383       .  A
C4404      C4405   1.407       .  A
C4404      N4410   1.340       .  A
C4405      C4406   1.403       .  A
C4405      H4414   1.082       .  S
C4406      C4409   1.386       .  A
N4407      C4408   1.356       .  A
N4407      H4417   1.045       .  S
C4408      C4409   1.396       .  A
C4409      H4415   1.082       .  S
N4410      C4411   1.358       .  A
N4410      H4418   1.045       .  S
C4411      C4412   1.393       .  A
C4412      H4416   1.082       .  S
C4419      C4424   1.384       .  A
C4419      C4420   1.413       .  A
C4419      N4425   1.350       .  A
C4420      C4421   1.411       .  A
C4420      H4431   1.082       .  S
C4421      C4430   1.390       .  A
C4421      C4422   1.384       .  A
C4422      C4423   1.394       .  A
C4422      N4428   1.333       .  A
C4423      C4424   1.392       .  A
C4423      H4432   1.083       .  S
C4424      C4427   1.367       .  A
N4425      C4426   1.360       .  A
N4425      H4435   1.045       .  S
C4426      C4427   1.390       .  A
C4427      H4433   1.083       .  S
N4428      C4429   1.352       .  A
N4428      H4436   1.045       .  S
C4429      C4430   1.401       .  A
C4430      H4434   1.082       .  S
C4437      C4442   1.385       .  A
C4437      C4438   1.397       .  A
C4437      N4443   1.337       .  A
C4438      C4439   1.396       .  A
C4438      H4449   1.083       .  S
C4439      C4448   1.371       .  A
C4439      C4440   1.384       .  A
C4440      C4441   1.409       .  A
C4440      N4446   1.348       .  A
C4441      C4442   1.408       .  A
C4441      H4450   1.082       .  S
C4442      C4445   1.385       .  A
N4443      C4444   1.352       .  A
N4443      H4453   1.045       .  S
C4444      C4445   1.398       .  A
C4445      H4451   1.082       .  S
N4446      C4447   1.358       .  A
N4446      H4454   1.045       .  S
C4447      C4448   1.391       .  A
C4448      H4452   1.083       .  S
C4455      C4460   1.385       .  A
C4455      C4456   1.401       .  A
C4455      N4461   1.347       .  A
C4456      C4457   1.402       .  A
C4456      H4467   1.082       .  S
C4457      C4466   1.370       .  A
C4457      C4458   1.384       .  A
C4458      C4459   1.403       .  A
C4458      N4464   1.349       .  A
C4459      C4460   1.406       .  A
C4459      H4468   1.082       .  S
C4460      C4463   1.374       .  A
N4461      C4462   1.354       .  A
N4461      H4471   1.045       .  S
C4462      C4463   1.398       .  A
C4463      H4469   1.083       .  S
N4464      C4465   1.356       .  A
N4464      H4472   1.045       .  S
C4465      C4466   1.396       .  A
C4466      H4470   1.083       .  S
C4473      C4478   1.383       .  A
C4473      C4474   1.407       .  A
C4473      N4479   1.343       .  A
C4474      C4475   1.405   1_655  A
C4474      H4485   1.082       .  S
C4475      C4484   1.384       .  A
C4475      C4476   1.384       .  A
C4476      C4477   1.403   1_455  A
C4476      N4482   1.340       .  A
C4477      C4478   1.400       .  A
C4477      H4486   1.082       .  S
C4478      C4481   1.380       .  A
N4479      C4480   1.359       .  A
N4479      H4489   1.045       .  S
C4480      C4481   1.394       .  A
C4481      H4487   1.082       .  S
N4482      C4483   1.356       .  A
N4482      H4490   1.045       .  S
C4483      C4484   1.398       .  A
C4484      H4488   1.082       .  S
C4491      C4496   1.385       .  A
C4491      C4492   1.402       .  A
C4491      N4497   1.348       .  A
C4492      C4493   1.404       .  A
C4492      H4503   1.082       .  S
C4493      C4502   1.373       .  A
C4493      C4494   1.384       .  A
C4494      C4495   1.405       .  A
C4494      N4500   1.349       .  A
C4495      C4496   1.407       .  A
C4495      H4504   1.082       .  S
C4496      C4499   1.374       .  A
N4497      C4498   1.355       .  A
N4497      H4507   1.044       .  S
C4498      C4499   1.399       .  A
C4499      H4505   1.083       .  S
N4500      C4501   1.357       .  A
N4500      H4508   1.045       .  S
C4501      C4502   1.396       .  A
C4502      H4506   1.082       .  S
C4509      C4514   1.384       .  A
C4509      C4510   1.409       .  A
C4509      N4515   1.347       .  A
C4510      C4511   1.408       .  A
C4510      H4521   1.082       .  S
C4511      C4520   1.386       .  A
C4511      C4512   1.384       .  A
C4512      C4513   1.396       .  A
C4512      N4518   1.336       .  A
C4513      C4514   1.395       .  A
C4513      H4522   1.083       .  S
C4514      C4517   1.369       .  A
N4515      C4516   1.359       .  A
N4515      H4525   1.045       .  S
C4516      C4517   1.392       .  A
C4517      H4523   1.083       .  S
N4518      C4519   1.353       .  A
N4518      H4526   1.045       .  S
C4519      C4520   1.398       .  A
C4520      H4524   1.082       .  S
C4527      C4532   1.386       .  A
C4527      C4528   1.400       .  A
C4527      N4533   1.337       .  A
C4528      C4529   1.396       .  A
C4528      H4539   1.082       .  S
C4529      C4538   1.376       .  A
C4529      C4530   1.385       .  A
C4530      C4531   1.404       .  A
C4530      N4536   1.340       .  A
C4531      C4532   1.402       .  A
C4531      H4540   1.082       .  S
C4532      C4535   1.381       .  A
N4533      C4534   1.352       .  A
N4533      H4543   1.045       .  S
C4534      C4535   1.394       .  A
C4535      H4541   1.082       .  S
N4536      C4537   1.356       .  A
N4536      H4544   1.045       .  S
C4537      C4538   1.391       .  A
C4538      H4542   1.082       .  S
C4545      C4550   1.383       .  A
C4545      C4546   1.408       .  A
C4545      N4551   1.340       .  A
C4546      C4547   1.404       .  A
C4546      H4557   1.082       .  S
C4547      C4556   1.388       .  A
C4547      C4548   1.383       .  A
C4548      C4549   1.404       .  A
C4548      N4554   1.337       .  A
C4549      C4550   1.399       .  A
C4549      H4558   1.082       .  S
C4550      C4553   1.384       .  A
N4551      C4552   1.359       .  A
N4551      H4561   1.045       .  S
C4552      C4553   1.394       .  A
C4553      H4559   1.082       .  S
N4554      C4555   1.357       .  A
N4554      H4562   1.045       .  S
C4555      C4556   1.397       .  A
C4556      H4560   1.082       .  S
C4563      C4568   1.385       .  A
C4563      C4564   1.407       .  A
C4563      N4569   1.345       .  A
C4564      C4565   1.406       .  A
C4564      H4575   1.082       .  S
C4565      C4574   1.384       .  A
C4565      C4566   1.386       .  A
C4566      C4567   1.394       .  A
C4566      N4572   1.334       .  A
C4567      C4568   1.392       .  A
C4567      H4576   1.083       .  S
C4568      C4571   1.367       .  A
N4569      C4570   1.357       .  A
N4569      H4579   1.045       .  S
C4570      C4571   1.390       .  A
C4571      H4577   1.083       .  S
N4572      C4573   1.351       .  A
N4572      H4580   1.045       .  S
C4573      C4574   1.396       .  A
C4574      H4578   1.082       .  S
C4581      C4586   1.383       .  A
C4581      C4582   1.407       .  A
C4581      N4587   1.341       .  A
C4582      C4583   1.403       .  A
C4582      H4593   1.082       .  S
C4583      C4592   1.386       .  A
C4583      C4584   1.383       .  A
C4584      C4585   1.405       .  A
C4584      N4590   1.340       .  A
C4585      C4586   1.402       .  A
C4585      H4594   1.082       .  S
C4586      C4589   1.385       .  A
N4587      C4588   1.358       .  A
N4587      H4597   1.045       .  S
C4588      C4589   1.395       .  A
C4589      H4595   1.082       .  S
N4590      C4591   1.357       .  A
N4590      H4598   1.045       .  S
C4591      C4592   1.396       .  A
C4592      H4596   1.082       .  S
C4599      C4604   1.384       .  A
C4599      C4600   1.410       .  A
C4599      N4605   1.350       .  A
C4600      C4601   1.410       .  A
C4600      H4611   1.082       .  S
C4601      C4610   1.386       .  A
C4601      C4602   1.385       .  A
C4602      C4603   1.391       .  A
C4602      N4608   1.333       .  A
C4603      C4604   1.390       .  A
C4603      H4612   1.083       .  S
C4604      C4607   1.362       .  A
N4605      C4606   1.359       .  A
N4605      H4615   1.044       .  S
C4606      C4607   1.389       .  A
C4607      H4613   1.083       .  S
N4608      C4609   1.350       .  A
N4608      H4616   1.045       .  S
C4609      C4610   1.399       .  A
C4610      H4614   1.082       .  S
C4617      C4622   1.385       .  A
C4617      C4618   1.401       .  A
C4617      N4623   1.347       .  A
C4618      C4619   1.403       .  A
C4618      H4629   1.082       .  S
C4619      C4628   1.371       .  A
C4619      C4620   1.385       .  A
C4620      C4621   1.402       .  A
C4620      N4626   1.347       .  A
C4621      C4622   1.404       .  A
C4621      H4630   1.082       .  S
C4622      C4625   1.372       .  A
N4623      C4624   1.355       .  A
N4623      H4633   1.045       .  S
C4624      C4625   1.397       .  A
C4625      H4631   1.083       .  S
N4626      C4627   1.356       .  A
N4626      H4634   1.045       .  S
C4627      C4628   1.396       .  A
C4628      H4632   1.083       .  S
C4635      C4640   1.385       .  A
C4635      C4636   1.402       .  A
C4635      N4641   1.346       .  A
C4636      C4637   1.403       .  A
C4636      H4647   1.082       .  S
C4637      C4646   1.374       .  A
C4637      C4638   1.385       .  A
C4638      C4639   1.402       .  A
C4638      N4644   1.345       .  A
C4639      C4640   1.403       .  A
C4639      H4648   1.082       .  S
C4640      C4643   1.374       .  A
N4641      C4642   1.355       .  A
N4641      H4651   1.045       .  S
C4642      C4643   1.396       .  A
C4643      H4649   1.083       .  S
N4644      C4645   1.355       .  A
N4644      H4652   1.045       .  S
C4645      C4646   1.396       .  A
C4646      H4650   1.083       .  S
C4653      C4658   1.383   1_655  A
C4653      C4654   1.406       .  A
C4653      N4659   1.338       .  A
C4654      C4655   1.401       .  A
C4654      H4665   1.082       .  S
C4655      C4664   1.386       .  A
C4655      C4656   1.383   1_655  A
C4656      C4657   1.408       .  A
C4656      N4662   1.340       .  A
C4657      C4658   1.403       .  A
C4657      H4666   1.082       .  S
C4658      C4661   1.388       .  A
N4659      C4660   1.357   1_655  A
N4659      H4669   1.045       .  S
C4660      C4661   1.397       .  A
C4661      H4667   1.082       .  S
N4662      C4663   1.359   1_455  A
N4662      H4670   1.045       .  S
C4663      C4664   1.395       .  A
C4664      H4668   1.082       .  S
C4671      C4676   1.385       .  A
C4671      C4672   1.393       .  A
C4671      N4677   1.335       .  A
C4672      C4673   1.392       .  A
C4672      H4683   1.083       .  S
C4673      C4682   1.364       .  A
C4673      C4674   1.385       .  A
C4674      C4675   1.409       .  A
C4674      N4680   1.349       .  A
C4675      C4676   1.409       .  A
C4675      H4684   1.082       .  S
C4676      C4679   1.384       .  A
N4677      C4678   1.351       .  A
N4677      H4687   1.045       .  S
C4678      C4679   1.399       .  A
C4679      H4685   1.082       .  S
N4680      C4681   1.358       .  A
N4680      H4688   1.044       .  S
C4681      C4682   1.389       .  A
C4682      H4686   1.083       .  S
C4689      C4694   1.384       .  A
C4689      C4690   1.408       .  A
C4689      N4695   1.348       .  A
C4690      C4691   1.408       .  A
C4690      H4701   1.082       .  S
C4691      C4700   1.383       .  A
C4691      C4692   1.385       .  A
C4692      C4693   1.399       .  A
C4692      N4698   1.341       .  A
C4693      C4694   1.398       .  A
C4693      H4702   1.083       .  S
C4694      C4697   1.372       .  A
N4695      C4696   1.358       .  A
N4695      H4705   1.045       .  S
C4696      C4697   1.392       .  A
C4697      H4703   1.083       .  S
N4698      C4699   1.353       .  A
N4698      H4706   1.045       .  S
C4699      C4700   1.397       .  A
C4700      H4704   1.082       .  S
C4707      C4712   1.384       .  A
C4707      C4708   1.404       .  A
C4707      N4713   1.337       .  A
C4708      C4709   1.400       .  A
C4708      H4719   1.082       .  S
C4709      C4718   1.384       .  A
C4709      C4710   1.383       .  A
C4710      C4711   1.407       .  A
C4710      N4716   1.338       .  A
C4711      C4712   1.402       .  A
C4711      H4720   1.082       .  S
C4712      C4715   1.386       .  A
N4713      C4714   1.356       .  A
N4713      H4723   1.045       .  S
C4714      C4715   1.396       .  A
C4715      H4721   1.082       .  S
N4716      C4717   1.358       .  A
N4716      H4724   1.045       .  S
C4717      C4718   1.394       .  A
C4718      H4722   1.082       .  S
C4725      C4730   1.385       .  A
C4725      C4726   1.392       .  A
C4725      N4731   1.333       .  A
C4726      C4727   1.390       .  A
C4726      H4737   1.083       .  S
C4727      C4736   1.364       .  A
C4727      C4728   1.385       .  A
C4728      C4729   1.411       .  A
C4728      N4734   1.349       .  A
C4729      C4730   1.410       .  A
C4729      H4738   1.082       .  S
C4730      C4733   1.387       .  A
N4731      C4732   1.351       .  A
N4731      H4741   1.045       .  S
C4732      C4733   1.400       .  A
C4733      H4739   1.082       .  S
N4734      C4735   1.359       .  A
N4734      H4742   1.044       .  S
C4735      C4736   1.389       .  A
C4736      H4740   1.083       .  S
C4743      C4748   1.384       .  A
C4743      C4744   1.404       .  A
C4743      N4749   1.348       .  A
C4744      C4745   1.404       .  A
C4744      H4755   1.082       .  S
C4745      C4754   1.375       .  A
C4745      C4746   1.384       .  A
C4746      C4747   1.405       .  A
C4746      N4752   1.349       .  A
C4747      C4748   1.407       .  A
C4747      H4756   1.082       .  S
C4748      C4751   1.377       .  A
N4749      C4750   1.356       .  A
N4749      H4759   1.045       .  S
C4750      C4751   1.399       .  A
C4751      H4757   1.082       .  S
N4752      C4753   1.356       .  A
N4752      H4760   1.045       .  S
C4753      C4754   1.397       .  A
C4754      H4758   1.083       .  S
C4761      C4766   1.385       .  A
C4761      C4762   1.401       .  A
C4761      N4767   1.347       .  A
C4762      C4763   1.403       .  A
C4762      H4773   1.082       .  S
C4763      C4772   1.372       .  A
C4763      C4764   1.385       .  A
C4764      C4765   1.401       .  A
C4764      N4770   1.346       .  A
C4765      C4766   1.403       .  A
C4765      H4774   1.082       .  S
C4766      C4769   1.372       .  A
N4767      C4768   1.355       .  A
N4767      H4777   1.045       .  S
C4768      C4769   1.397       .  A
C4769      H4775   1.083       .  S
N4770      C4771   1.355       .  A
N4770      H4778   1.045       .  S
C4771      C4772   1.396       .  A
C4772      H4776   1.083       .  S
C4779      C4784   1.384       .  A
C4779      C4780   1.401       .  A
C4779      N4785   1.341       .  A
C4780      C4781   1.401       .  A
C4780      H4791   1.082       .  S
C4781      C4790   1.376       .  A
C4781      C4782   1.384       .  A
C4782      C4783   1.409       .  A
C4782      N4788   1.349       .  A
C4783      C4784   1.408       .  A
C4783      H4792   1.082       .  S
C4784      C4787   1.385       .  A
N4785      C4786   1.355       .  A
N4785      H4795   1.045       .  S
C4786      C4787   1.398       .  A
C4787      H4793   1.082       .  S
N4788      C4789   1.358       .  A
N4788      H4796   1.045       .  S
C4789      C4790   1.394       .  A
C4790      H4794   1.082       .  S
C4797      C4802   1.384       .  A
C4797      C4798   1.402       .  A
C4797      N4803   1.337       .  A
C4798      C4799   1.398       .  A
C4798      H4809   1.082       .  S
C4799      C4808   1.379       .  A
C4799      C4800   1.384       .  A
C4800      C4801   1.403       .  A
C4800      N4806   1.337       .  A
C4801      C4802   1.399       .  A
C4801      H4810   1.082       .  S
C4802      C4805   1.381       .  A
N4803      C4804   1.355       .  A
N4803      H4813   1.045       .  S
C4804      C4805   1.393       .  A
C4805      H4811   1.082       .  S
N4806      C4807   1.356       .  A
N4806      H4814   1.045       .  S
C4807      C4808   1.392       .  A
C4808      H4812   1.082       .  S
C4815      C4820   1.386       .  A
C4815      C4816   1.405       .  A
C4815      N4821   1.345       .  A
C4816      C4817   1.405       .  A
C4816      H4827   1.082       .  S
C4817      C4826   1.380       .  A
C4817      C4818   1.385       .  A
C4818      C4819   1.395       .  A
C4818      N4824   1.337       .  A
C4819      C4820   1.394       .  A
C4819      H4828   1.083       .  S
C4820      C4823   1.366       .  A
N4821      C4822   1.355       .  A
N4821      H4831   1.045       .  S
C4822      C4823   1.389       .  A
C4823      H4829   1.083       .  S
N4824      C4825   1.353       .  A
N4824      H4832   1.045       .  S
C4825      C4826   1.396       .  A
C4826      H4830   1.082       .  S
C4833      C4838   1.384       .  A
C4833      C4834   1.398       .  A
C4833      N4839   1.337       .  A
C4834      C4835   1.396       .  A
C4834      H4845   1.083       .  S
C4835      C4844   1.370       .  A
C4835      C4836   1.384       .  A
C4836      C4837   1.411       .  A
C4836      N4842   1.350       .  A
C4837      C4838   1.411       .  A
C4837      H4846   1.082       .  S
C4838      C4841   1.390       .  A
N4839      C4840   1.355       .  A
N4839      H4849   1.045       .  S
C4840      C4841   1.401       .  A
C4841      H4847   1.082       .  S
N4842      C4843   1.360       .  A
N4842      H4850   1.044       .  S
C4843      C4844   1.393       .  A
C4844      H4848   1.083       .  S
C4851      C4856   1.383       .  A
C4851      C4852   1.405       .  A
C4851      N4857   1.338       .  A
C4852      C4853   1.400       .  A
C4852      H4863   1.082       .  S
C4853      C4862   1.384       .  A
C4853      C4854   1.383       .  A
C4854      C4855   1.407       .  A
C4854      N4860   1.339       .  A
C4855      C4856   1.403       .  A
C4855      H4864   1.082       .  S
C4856      C4859   1.388       .  A
N4857      C4858   1.358       .  A
N4857      H4867   1.045       .  S
C4858      C4859   1.397       .  A
C4859      H4865   1.082       .  S
N4860      C4861   1.358       .  A
N4860      H4868   1.045       .  S
C4861      C4862   1.393       .  A
C4862      H4866   1.082       .  S
C4869      C4874   1.384       .  A
C4869      C4870   1.408       .  A
C4869      N4875   1.347       .  A
C4870      C4871   1.407       .  A
C4870      H4881   1.082       .  S
C4871      C4880   1.386       .  A
C4871      C4872   1.385       .  A
C4872      C4873   1.399       .  A
C4872      N4878   1.338       .  A
C4873      C4874   1.397       .  A
C4873      H4882   1.083       .  S
C4874      C4877   1.372       .  A
N4875      C4876   1.357       .  A
N4875      H4885   1.044       .  S
C4876      C4877   1.394       .  A
C4877      H4883   1.083       .  S
N4878      C4879   1.354       .  A
N4878      H4886   1.045       .  S
C4879      C4880   1.397       .  A
C4880      H4884   1.082       .  S
C4887      C4892   1.384       .  A
C4887      C4888   1.404       .  A
C4887      N4893   1.337       .  A
C4888      C4889   1.399   1_655  A
C4888      H4899   1.082       .  S
C4889      C4898   1.382       .  A
C4889      C4890   1.384       .  A
C4890      C4891   1.407   1_455  A
C4890      N4896   1.340       .  A
C4891      C4892   1.403       .  A
C4891      H4900   1.082       .  S
C4892      C4895   1.387       .  A
N4893      C4894   1.357       .  A
N4893      H4903   1.045       .  S
C4894      C4895   1.397       .  A
C4895      H4901   1.082       .  S
N4896      C4897   1.358       .  A
N4896      H4904   1.045       .  S
C4897      C4898   1.394       .  A
C4898      H4902   1.082       .  S
C4905      C4910   1.384       .  A
C4905      C4906   1.402       .  A
C4905      N4911   1.339       .  A
C4906      C4907   1.399       .  A
C4906      H4917   1.082       .  S
C4907      C4916   1.378       .  A
C4907      C4908   1.384       .  A
C4908      C4909   1.406       .  A
C4908      N4914   1.343       .  A
C4909      C4910   1.404       .  A
C4909      H4918   1.082       .  S
C4910      C4913   1.383       .  A
N4911      C4912   1.356       .  A
N4911      H4921   1.045       .  S
C4912      C4913   1.397       .  A
C4913      H4919   1.082       .  S
N4914      C4915   1.358       .  A
N4914      H4922   1.045       .  S
C4915      C4916   1.393       .  A
C4916      H4920   1.082       .  S
C4923      C4928   1.383       .  A
C4923      C4924   1.413       .  A
C4923      N4929   1.352       .  A
C4924      C4925   1.413       .  A
C4924      H4935   1.082       .  S
C4925      C4934   1.391       .  A
C4925      C4926   1.384       .  A
C4926      C4927   1.393       .  A
C4926      N4932   1.334       .  A
C4927      C4928   1.392       .  A
C4927      H4936   1.083       .  S
C4928      C4931   1.364       .  A
N4929      C4930   1.361       .  A
N4929      H4939   1.044       .  S
C4930      C4931   1.391       .  A
C4931      H4937   1.083       .  S
N4932      C4933   1.352       .  A
N4932      H4940   1.045       .  S
C4933      C4934   1.403       .  A
C4934      H4938   1.082       .  S
C4941      C4946   1.383       .  A
C4941      C4942   1.407       .  A
C4941      N4947   1.339       .  A
C4942      C4943   1.402       .  A
C4942      H4953   1.082       .  S
C4943      C4952   1.387       .  A
C4943      C4944   1.383       .  A
C4944      C4945   1.408       .  A
C4944      N4950   1.339       .  A
C4945      C4946   1.403       .  A
C4945      H4954   1.082       .  S
C4946      C4949   1.389       .  A
N4947      C4948   1.359       .  A
N4947      H4957   1.045       .  S
C4948      C4949   1.397       .  A
C4949      H4955   1.082       .  S
N4950      C4951   1.359       .  A
N4950      H4958   1.045       .  S
C4951      C4952   1.395       .  A
C4952      H4956   1.082       .  S
C4959      C4964   1.385       .  A
C4959      C4960   1.396       .  A
C4959      N4965   1.337       .  A
C4960      C4961   1.395       .  A
C4960      H4971   1.083       .  S
C4961      C4970   1.367       .  A
C4961      C4962   1.385       .  A
C4962      C4963   1.408       .  A
C4962      N4968   1.349       .  A
C4963      C4964   1.408       .  A
C4963      H4972   1.082       .  S
C4964      C4967   1.383       .  A
N4965      C4966   1.353       .  A
N4965      H4975   1.045       .  S
C4966      C4967   1.398       .  A
C4967      H4973   1.082       .  S
N4968      C4969   1.357       .  A
N4968      H4976   1.044       .  S
C4969      C4970   1.390       .  A
C4970      H4974   1.083       .  S
C4977      C4982   1.383       .  A
C4977      C4978   1.394       .  A
C4977      N4983   1.334       .  A
C4978      C4979   1.393       .  A
C4978      H4989   1.083       .  S
C4979      C4988   1.367       .  A
C4979      C4980   1.384       .  A
C4980      C4981   1.414       .  A
C4980      N4986   1.351       .  A
C4981      C4982   1.412       .  A
C4981      H4990   1.082       .  S
C4982      C4985   1.391       .  A
N4983      C4984   1.353       .  A
N4983      H4993   1.045       .  S
C4984      C4985   1.402       .  A
C4985      H4991   1.082       .  S
N4986      C4987   1.361       .  A
N4986      H4994   1.045       .  S
C4987      C4988   1.390       .  A
C4988      H4992   1.083       .  S
C4995      C5000   1.385       .  A
C4995      C4996   1.402       .  A
C4995      N5001   1.347       .  A
C4996      C4997   1.403       .  A
C4996      H5007   1.082       .  S
C4997      C5006   1.373       .  A
C4997      C4998   1.385       .  A
C4998      C4999   1.405       .  A
C4998      N5004   1.348       .  A
C4999      C5000   1.406       .  A
C4999      H5008   1.082       .  S
C5000      C5003   1.377       .  A
N5001      C5002   1.355       .  A
N5001      H5011   1.045       .  S
C5002      C5003   1.398       .  A
C5003      H5009   1.082       .  S
N5004      C5005   1.356       .  A
N5004      H5012   1.045       .  S
C5005      C5006   1.393       .  A
C5006      H5010   1.083       .  S
C5013      C5018   1.383       .  A
C5013      C5014   1.407       .  A
C5013      N5019   1.339       .  A
C5014      C5015   1.402       .  A
C5014      H5025   1.082       .  S
C5015      C5024   1.388       .  A
C5015      C5016   1.383       .  A
C5016      C5017   1.408       .  A
C5016      N5022   1.340       .  A
C5017      C5018   1.403       .  A
C5017      H5026   1.082       .  S
C5018      C5021   1.389       .  A
N5019      C5020   1.358       .  A
N5019      H5029   1.045       .  S
C5020      C5021   1.397       .  A
C5021      H5027   1.082       .  S
N5022      C5023   1.359       .  A
N5022      H5030   1.045       .  S
C5023      C5024   1.396       .  A
C5024      H5028   1.082       .  S
C5031      C5036   1.385       .  A
C5031      C5032   1.395       .  A
C5031      N5037   1.336       .  A
C5032      C5033   1.394       .  A
C5032      H5043   1.083       .  S
C5033      C5042   1.368       .  A
C5033      C5034   1.384       .  A
C5034      C5035   1.409       .  A
C5034      N5040   1.348       .  A
C5035      C5036   1.408       .  A
C5035      H5044   1.082       .  S
C5036      C5039   1.385       .  A
N5037      C5038   1.352       .  A
N5037      H5047   1.045       .  S
C5038      C5039   1.397       .  A
C5039      H5045   1.082       .  S
N5040      C5041   1.358       .  A
N5040      H5048   1.045       .  S
C5041      C5042   1.391       .  A
C5042      H5046   1.083       .  S
C5049      C5054   1.384       .  A
C5049      C5050   1.406       .  A
C5049      N5055   1.341       .  A
C5050      C5051   1.403       .  A
C5050      H5061   1.082       .  S
C5051      C5060   1.383       .  A
C5051      C5052   1.384       .  A
C5052      C5053   1.403       .  A
C5052      N5058   1.339       .  A
C5053      C5054   1.400       .  A
C5053      H5062   1.082       .  S
C5054      C5057   1.380       .  A
N5055      C5056   1.358       .  A
N5055      H5065   1.045       .  S
C5056      C5057   1.394       .  A
C5057      H5063   1.082       .  S
N5058      C5059   1.356       .  A
N5058      H5066   1.045       .  S
C5059      C5060   1.396       .  A
C5060      H5064   1.082       .  S
C5067      C5072   1.385       .  A
C5067      C5068   1.401       .  A
C5067      N5073   1.347       .  A
C5068      C5069   1.403       .  A
C5068      H5079   1.082       .  S
C5069      C5078   1.373       .  A
C5069      C5070   1.385       .  A
C5070      C5071   1.402       .  A
C5070      N5076   1.347       .  A
C5071      C5072   1.404       .  A
C5071      H5080   1.082       .  S
C5072      C5075   1.372       .  A
N5073      C5074   1.355       .  A
N5073      H5083   1.045       .  S
C5074      C5075   1.397       .  A
C5075      H5081   1.083       .  S
N5076      C5077   1.356       .  A
N5076      H5084   1.045       .  S
C5077      C5078   1.396       .  A
C5078      H5082   1.083       .  S
C5085      C5090   1.384       .  A
C5085      C5086   1.393       .  A
C5085      N5091   1.334       .  A
C5086      C5087   1.392       .  A
C5086      H5097   1.083       .  S
C5087      C5096   1.364       .  A
C5087      C5088   1.384       .  A
C5088      C5089   1.413       .  A
C5088      N5094   1.352       .  A
C5089      C5090   1.412       .  A
C5089      H5098   1.082       .  S
C5090      C5093   1.389       .  A
N5091      C5092   1.352       .  A
N5091      H5101   1.045       .  S
C5092      C5093   1.401       .  A
C5093      H5099   1.082       .  S
N5094      C5095   1.361       .  A
N5094      H5102   1.045       .  S
C5095      C5096   1.391       .  A
C5096      H5100   1.083       .  S
C5103      C5108   1.384       .  A
C5103      C5104   1.403       .  A
C5103      N5109   1.342       .  A
C5104      C5105   1.402       .  A
C5104      H5115   1.083       .  S
C5105      C5114   1.377       .  A
C5105      C5106   1.384       .  A
C5106      C5107   1.408       .  A
C5106      N5112   1.348       .  A
C5107      C5108   1.407       .  A
C5107      H5116   1.082       .  S
C5108      C5111   1.385       .  A
N5109      C5110   1.356       .  A
N5109      H5119   1.045       .  S
C5110      C5111   1.397       .  A
C5111      H5117   1.082       .  S
N5112      C5113   1.357       .  A
N5112      H5120   1.044       .  S
C5113      C5114   1.395       .  A
C5114      H5118   1.083       .  S
