geometry optimzed in LAMMPS
_audit_creation_date              2020-12-01 
_audit_creation_method            'lammps2cif' 
_symmetry_space_group_name_H-M    'P1' 
_symmetry_Int_Tables_number       1 
_symmetry_cell_setting            triclinic 
loop_ 
_symmetry_equiv_pos_as_xyz 
  x,y,z 
_cell_length_a                    43.72980867 
_cell_length_b                    43.68399519249956 
_cell_length_c                    43.635410288561594 
_cell_angle_alpha                 88.67067941214472 
_cell_angle_beta                  90.16127282409222 
_cell_angle_gamma                 90.93259256433306 
loop_ 
_atom_site_label 
_atom_site_type_symbol 
_atom_site_fract_x 
_atom_site_fract_y 
_atom_site_fract_z 
_atom_site_charge 
O1          O  0.34731953  0.92114238  0.50256441    -0.74900
O2          O  0.34773389  0.83349098  0.00113846    -0.75000
O3          O  0.34731857  0.87571974  0.04604629    -0.75000
O4          O  0.34803971  0.87877706  0.45779996    -0.75100
O5          O  0.39901093  0.87894144  0.45889987    -0.75000
O6          O  0.39831967  0.87628559  0.04686285    -0.75000
O7          O  0.39789464  0.83375233  0.50251779    -0.74900
O8          O  0.39920840  0.92178091  0.00340997    -0.75000
Ni9        Ni  0.34621625  0.87737733  0.00193459     1.25400
Ni10       Ni  0.40080132  0.87781024  0.00290926     1.25400
C11         C  0.37379781  0.93602663  0.00346349     0.87300
C12         C  0.37233250  0.81902606  0.50152299     0.87200
C13         C  0.37263556  0.87558485  0.06094887     0.87200
C14         C  0.37381235  0.87896224  0.44383987     0.87400
O15         O  0.35301921  0.92040238  0.25096806    -0.74900
O16         O  0.34812599  0.83238817  0.25448101    -0.75000
O17         O  0.35079003  0.87724720  0.29642950    -0.75000
O18         O  0.34984546  0.87577080  0.20867866    -0.75100
O19         O  0.40078333  0.87418517  0.20816341    -0.75000
O20         O  0.40168854  0.87509658  0.29639913    -0.75000
O21         O  0.39905239  0.83080980  0.25386546    -0.74900
O22         O  0.40391984  0.91849281  0.25108898    -0.75000
Ni23       Ni  0.34864757  0.87651348  0.25258348     1.25400
Ni24       Ni  0.40317146  0.87456066  0.25229354     1.25400
C25         C  0.37927958  0.93393111  0.25111655     0.87300
C26         C  0.37294184  0.81712065  0.25507458     0.87200
C27         C  0.37628237  0.87641422  0.31091100     0.87200
C28         C  0.37507333  0.87488656  0.19392302     0.87400
O29         O  0.34957422  0.08270367  0.00667055    -0.74900
O30         O  0.34823366  0.17025848  0.50365436    -0.75000
O31         O  0.34723580  0.12549911  0.46086177    -0.75000
O32         O  0.35109907  0.12736144  0.04908310    -0.75100
O33         O  0.40195843  0.12841596  0.04711526    -0.75000
O34         O  0.39811369  0.12709909  0.45943290    -0.75000
O35         O  0.39945869  0.17172812  0.00100166    -0.74900
O36         O  0.39990912  0.08360232  0.50439222    -0.75000
Ni37       Ni  0.34752776  0.12652133  0.00517782     1.25400
Ni38       Ni  0.40192961  0.12778425  0.00311757     1.25400
C39         C  0.37509330  0.06876832  0.00584058     0.87300
C40         C  0.37404606  0.18591567  0.00155674     0.87200
C41         C  0.37230074  0.12557291  0.44563959     0.87200
C42         C  0.37714249  0.12783224  0.06266400     0.87400
O43         O  0.35603135  0.07970149  0.25318202    -0.74900
O44         O  0.35284573  0.16752021  0.25379202    -0.75000
O45         O  0.35550991  0.12501310  0.20980222    -0.75000
O46         O  0.35272797  0.12206112  0.29722053    -0.75100
O47         O  0.40357388  0.12549960  0.29939055    -0.75000
O48         O  0.40642868  0.12635405  0.21114655    -0.75000
O49         O  0.40385707  0.16982602  0.25486691    -0.74900
O50         O  0.40694615  0.08217042  0.25576004    -0.75000
Ni51       Ni  0.35250549  0.12348584  0.25344508     1.25400
Ni52       Ni  0.40705111  0.12608059  0.25534874     1.25400
C53         C  0.38200644  0.06649863  0.25441640     0.87300
C54         C  0.37794879  0.18307214  0.25439204     0.87200
C55         C  0.38125493  0.12567684  0.19594428     0.87200
C56         C  0.37749302  0.12361673  0.31280420     0.87400
O57         O  0.91730581  0.64622287  0.50432637    -0.74900
O58         O  0.82848079  0.64810887  0.00341225    -0.75000
O59         O  0.87212291  0.64957189  0.04789216    -0.75000
O60         O  0.87375153  0.64446711  0.45968438    -0.75100
O61         O  0.87287838  0.59351465  0.46364260    -0.75000
O62         O  0.86965608  0.59864017  0.05132378    -0.75000
O63         O  0.82783570  0.59708701  0.50569320    -0.74900
O64         O  0.91453722  0.59541217  0.00869626    -0.75000
Ni65       Ni  0.87254744  0.64913349  0.00387383     1.25400
Ni66       Ni  0.87063789  0.59467444  0.00742838     1.25400
C67         C  0.92995534  0.62057925  0.00700857     0.87300
C68         C  0.81379844  0.62255719  0.50379236     0.87200
C69         C  0.87104098  0.62477921  0.06413858     0.87200
C70         C  0.87352372  0.61818562  0.44717056     0.87400
O71         O  0.92182418  0.64857871  0.25738112    -0.74900
O72         O  0.83405833  0.64475673  0.25580706    -0.75000
O73         O  0.87736536  0.64425205  0.30043689    -0.75000
O74         O  0.87808830  0.64871505  0.21238454    -0.75100
O75         O  0.87946624  0.59777910  0.21118525    -0.75000
O76         O  0.87847439  0.59328422  0.29918280    -0.75000
O77         O  0.83503819  0.59383408  0.25431805    -0.74900
O78         O  0.92316577  0.59762341  0.25612022    -0.75000
Ni79       Ni  0.87785124  0.64836136  0.25653279     1.25400
Ni80       Ni  0.87916211  0.59381430  0.25514530     1.25400
C81         C  0.93697869  0.62372446  0.25740510     0.87300
C82         C  0.82002791  0.61883181  0.25453906     0.87200
C83         C  0.87754551  0.61804687  0.31429089     0.87200
C84         C  0.87816421  0.62388739  0.19725656     0.87400
O85         O  0.07704989  0.64756307  0.01032750    -0.74900
O86         O  0.16579340  0.64824429  0.51474651    -0.75000
O87         O  0.12484162  0.64993531  0.46908209    -0.75000
O88         O  0.11887527  0.64581620  0.05626644    -0.75100
O89         O  0.12327885  0.59541427  0.05429172    -0.75000
O90         O  0.12280853  0.59934568  0.46621927    -0.75000
O91         O  0.16586806  0.59973779  0.00973307    -0.74900
O92         O  0.07887795  0.59433891  0.51050703    -0.75000
Ni93       Ni  0.12100559  0.65080370  0.01277136     1.25400
Ni94       Ni  0.12209389  0.59651046  0.01010258     1.25400
C95         C  0.06298560  0.62156534  0.01004590     0.87300
C96         C  0.17986588  0.62554645  0.01212719     0.87200
C97         C  0.12525670  0.62586417  0.45304461     0.87200
C98         C  0.12219586  0.61987789  0.06993672     0.87400
O99         O  0.08447815  0.65237847  0.26175768    -0.74900
O100        O  0.17221280  0.65334681  0.25708757    -0.75000
O101        O  0.12591106  0.64900027  0.21572182    -0.75000
O102        O  0.13150783  0.65588269  0.30310003    -0.75100
O103        O  0.12878984  0.60520120  0.30786727    -0.75000
O104        O  0.12881688  0.59852207  0.22073484    -0.75000
O105        O  0.17233779  0.60258344  0.26410138    -0.74900
O106        O  0.08435044  0.60135190  0.26417581    -0.75000
Ni107      Ni  0.12842819  0.65449263  0.25924942     1.25400
Ni108      Ni  0.12844800  0.60011889  0.26445648     1.25400
C109        C  0.06990187  0.62669331  0.26295940     0.87300
C110        C  0.18664088  0.62819312  0.26016950     0.87200
C111        C  0.12776512  0.62260679  0.20360755     0.87200
C112        C  0.13150976  0.63151590  0.32000829     0.87400
O113        O  0.65143059  0.08147667  0.49922473    -0.74900
O114        O  0.65069446  0.16904258  0.99809441    -0.75000
O115        O  0.64889421  0.12453581  0.04264508    -0.75000
O116        O  0.65354383  0.12575118  0.45444323    -0.75100
O117        O  0.60259199  0.12508353  0.45206883    -0.75000
O118        O  0.59798138  0.12359018  0.04023985    -0.75000
O119        O  0.60054626  0.16859736  0.49531192    -0.74900
O120        O  0.60032108  0.07999057  0.99689488    -0.75000
Ni121      Ni  0.65274786  0.12509113  0.99865371     1.25400
Ni122      Ni  0.59820467  0.12393861  0.99621329     1.25400
C123        C  0.62588460  0.06605133  0.99823320     0.87300
C124        C  0.62601429  0.18348932  0.49638636     0.87200
C125        C  0.62275931  0.12408913  0.05597111     0.87200
C126        C  0.62867859  0.12549225  0.43876063     0.87400
O127        O  0.64588494  0.07858799  0.24641970    -0.74900
O128        O  0.64896971  0.16655355  0.24605002    -0.75000
O129        O  0.64990989  0.12163807  0.29027827    -0.75000
O130        O  0.64535647  0.12350849  0.20241957    -0.75100
O131        O  0.59448122  0.12513301  0.20459250    -0.75000
O132        O  0.59898540  0.12181971  0.29271421    -0.75000
O133        O  0.59822131  0.16726490  0.24950104    -0.74900
O134        O  0.59498570  0.07956534  0.24788249    -0.75000
Ni135      Ni  0.64932875  0.12250951  0.24622154     1.25400
Ni136      Ni  0.59486112  0.12344782  0.24877295     1.25400
C137        C  0.61988678  0.06457628  0.24702128     0.87300
C138        C  0.62403241  0.18148037  0.24769912     0.87200
C139        C  0.62520523  0.12170996  0.30598073     0.87200
C140        C  0.61929463  0.12476705  0.18900353     0.87400
O141        O  0.64965026  0.91873903  0.00258652    -0.74900
O142        O  0.64858248  0.83147344  0.50336850    -0.75000
O143        O  0.64794713  0.87576160  0.45892842    -0.75000
O144        O  0.64939864  0.87437756  0.04725316    -0.75100
O145        O  0.59848464  0.87464149  0.04776320    -0.75000
O146        O  0.59706599  0.87559055  0.46025375    -0.75000
O147        O  0.59738326  0.83082473  0.00494518    -0.74900
O148        O  0.59863455  0.91914923  0.50339837    -0.75000
Ni149      Ni  0.65060195  0.87478126  0.00312783     1.25400
Ni150      Ni  0.59615231  0.87482615  0.00385702     1.25400
C151        C  0.62440958  0.93324022  0.00230265     0.87300
C152        C  0.62243349  0.81604137  0.00437022     0.87200
C153        C  0.62209234  0.87586723  0.44502390     0.87200
C154        C  0.62410378  0.87447988  0.06206156     0.87400
O155        O  0.64632658  0.91846089  0.25285263    -0.74900
O156        O  0.64882540  0.83060216  0.25476609    -0.75000
O157        O  0.64837358  0.87478041  0.21003358    -0.75000
O158        O  0.64674361  0.87460314  0.29786760    -0.75100
O159        O  0.59580787  0.87381928  0.29679502    -0.75000
O160        O  0.59745642  0.87126763  0.20906031    -0.75000
O161        O  0.59793091  0.82836162  0.25521760    -0.74900
O162        O  0.59540956  0.91619013  0.25055392    -0.75000
Ni163      Ni  0.64937428  0.87465067  0.25396258     1.25400
Ni164      Ni  0.59483717  0.87226625  0.25290175     1.25400
C165        C  0.62047255  0.93178672  0.25099932     0.87300
C166        C  0.62379156  0.81491022  0.25519816     0.87200
C167        C  0.62316814  0.87318558  0.19508331     0.87200
C168        C  0.62100355  0.87469797  0.31183051     0.87400
O169        O  0.36919338  0.33270854  0.02493245    -0.74900
O170        O  0.37242383  0.42055083  0.02729327    -0.75000
O171        O  0.32682091  0.37759518  0.02294924    -0.75000
O172        O  0.41461045  0.37490476  0.02869201    -0.75100
O173        O  0.41748372  0.37933625  0.47745249    -0.75000
O174        O  0.32986079  0.37731339  0.47204399    -0.75000
O175        O  0.37330480  0.42271168  0.47532080    -0.74900
O176        O  0.37375242  0.33460252  0.47429648    -0.75000
Ni177      Ni  0.37062526  0.37647256  0.02779075     1.25400
Ni178      Ni  0.37373069  0.37866696  0.47297366     1.25400
C179        C  0.37118728  0.31937261  0.49964574     0.87300
C180        C  0.37311550  0.43623010  0.50109983     0.87200
C181        C  0.31370565  0.37666797  0.99662054     0.87200
C182        C  0.43070081  0.37649016  0.00416791     0.87400
O183        O  0.37620988  0.33067127  0.27998016    -0.74900
O184        O  0.37661953  0.41843316  0.28151751    -0.75000
O185        O  0.33259131  0.37411351  0.27902020    -0.75000
O186        O  0.42081753  0.37525076  0.28218072    -0.75100
O187        O  0.42218192  0.37672174  0.23123452    -0.75000
O188        O  0.33467513  0.37626054  0.22805279    -0.75000
O189        O  0.37862161  0.42045001  0.23048028    -0.74900
O190        O  0.37851720  0.33243567  0.22934170    -0.75000
Ni191      Ni  0.37654196  0.37451304  0.28250287     1.25400
Ni192      Ni  0.37853059  0.37652112  0.22800508     1.25400
C193        C  0.37746166  0.31675290  0.25451639     0.87300
C194        C  0.37749896  0.43392709  0.25624814     0.87200
C195        C  0.31910221  0.37526726  0.25288037     0.87200
C196        C  0.43611300  0.37627908  0.25707321     0.87400
O197        O  0.36953425  0.67153893  0.47550809    -0.74900
O198        O  0.37092378  0.58351016  0.47658116    -0.75000
O199        O  0.32651202  0.62593191  0.47912669    -0.75000
O200        O  0.41420362  0.62899894  0.47295949    -0.75100
O201        O  0.41625518  0.62698182  0.02547404    -0.75000
O202        O  0.32866139  0.62752705  0.03005237    -0.75000
O203        O  0.37182193  0.58318030  0.02871598    -0.74900
O204        O  0.37344359  0.67116484  0.02688153    -0.75000
Ni205      Ni  0.37017902  0.62751745  0.47422355     1.25400
Ni206      Ni  0.37261071  0.62719873  0.02957410     1.25400
C207        C  0.37137340  0.68586322  0.00121266     0.87300
C208        C  0.37094649  0.56883613  0.00343262     0.87200
C209        C  0.31371062  0.62649659  0.50549762     0.87200
C210        C  0.43042396  0.62835240  0.49748766     0.87400
O211        O  0.37992883  0.67033314  0.23360335    -0.74900
O212        O  0.37681869  0.58235316  0.23234566    -0.75000
O213        O  0.33457550  0.62782310  0.23260553    -0.75000
O214        O  0.42228002  0.62540968  0.23344511    -0.75100
O215        O  0.42196014  0.62402426  0.28439242    -0.75000
O216        O  0.33415554  0.62401794  0.28327253    -0.75000
O217        O  0.37732228  0.58046138  0.28339367    -0.74900
O218        O  0.37792156  0.66842531  0.28448629    -0.75000
Ni219      Ni  0.37845652  0.62650019  0.23119755     1.25400
Ni220      Ni  0.37792116  0.62423998  0.28569253     1.25400
C221        C  0.37818625  0.68400102  0.25918936     0.87300
C222        C  0.37686333  0.56687806  0.25769971     0.87200
C223        C  0.31966176  0.62655123  0.25783468     0.87200
C224        C  0.43671617  0.62399789  0.25903181     0.87400
O225        O  0.61871150  0.33132076  0.46909750    -0.74900
O226        O  0.62017438  0.41950535  0.46878751    -0.75000
O227        O  0.66303453  0.37486328  0.46340719    -0.75000
O228        O  0.57585902  0.37520867  0.47436056    -0.75100
O229        O  0.58177763  0.37157498  0.02578125    -0.75000
O230        O  0.66902472  0.37628725  0.01481146    -0.75000
O231        O  0.62385654  0.41834834  0.02022206    -0.74900
O232        O  0.62702084  0.33038737  0.02065206    -0.75000
Ni233      Ni  0.61920771  0.37538869  0.46710290     1.25400
Ni234      Ni  0.62565972  0.37425934  0.02216902     1.25400
C235        C  0.62294347  0.31607702  0.99562451     0.87300
C236        C  0.62165160  0.43323194  0.99464721     0.87200
C237        C  0.68057757  0.37494230  0.48696485     0.87200
C238        C  0.56428913  0.37217040  0.50126510     0.87400
O239        O  0.62601441  0.33030576  0.22049060    -0.74900
O240        O  0.62574926  0.41826494  0.22208720    -0.75000
O241        O  0.66958837  0.37510246  0.21816007    -0.75000
O242        O  0.58199764  0.37339297  0.22435886    -0.75100
O243        O  0.58559132  0.37261393  0.27526745    -0.75000
O244        O  0.67320934  0.37222231  0.26910413    -0.75000
O245        O  0.63015087  0.41626559  0.27301171    -0.74900
O246        O  0.62853458  0.32838761  0.27148775    -0.75000
Ni247      Ni  0.62569542  0.37432768  0.21946592     1.25400
Ni248      Ni  0.62951973  0.37225995  0.27401616     1.25400
C249        C  0.62725948  0.31481727  0.24576696     0.87300
C250        C  0.62789587  0.43174757  0.24782393     0.87200
C251        C  0.68584422  0.37377224  0.24261753     0.87200
C252        C  0.56928324  0.37328987  0.25080839     0.87400
O253        O  0.62173792  0.66616203  0.02640893    -0.74900
O254        O  0.61973494  0.57863884  0.02131794    -0.75000
O255        O  0.66468331  0.62203171  0.02376424    -0.75000
O256        O  0.57684661  0.62265278  0.02384131    -0.75100
O257        O  0.57809772  0.62739899  0.47198205    -0.75000
O258        O  0.66588429  0.62600180  0.47270027    -0.75000
O259        O  0.62062650  0.58278415  0.47001144    -0.74900
O260        O  0.62317235  0.67050281  0.47486267    -0.75000
Ni261      Ni  0.62077146  0.62222857  0.02563606     1.25400
Ni262      Ni  0.62198073  0.62680625  0.47057527     1.25400
C263        C  0.62303133  0.68292021  0.50119665     0.87300
C264        C  0.62020031  0.56644718  0.49480357     0.87200
C265        C  0.67913390  0.62384310  0.99824507     0.87200
C266        C  0.56231642  0.62507641  0.99836261     0.87400
O267        O  0.62826268  0.66594034  0.27877416    -0.74900
O268        O  0.62883779  0.57786124  0.27700579    -0.75000
O269        O  0.67255440  0.62271765  0.27769304    -0.75000
O270        O  0.58496483  0.62083033  0.27849668    -0.75100
O271        O  0.58399698  0.62484330  0.22756179    -0.75000
O272        O  0.67206937  0.62313961  0.22669510    -0.75000
O273        O  0.62672542  0.58021214  0.22595648    -0.74900
O274        O  0.62928763  0.66804750  0.22775999    -0.75000
Ni275      Ni  0.62871481  0.62179713  0.27978714     1.25400
Ni276      Ni  0.62802115  0.62417525  0.22516934     1.25400
C277        C  0.62847140  0.68156002  0.25349553     0.87300
C278        C  0.62768115  0.56455159  0.25111766     0.87200
C279        C  0.68687809  0.62240065  0.25213946     0.87200
C280        C  0.56993854  0.62291843  0.25333173     0.87400
O281        O  0.07688600  0.35292151  0.48788968    -0.74900
O282        O  0.16446969  0.34943510  0.99264854    -0.75000
O283        O  0.11788997  0.35068456  0.03398516    -0.75000
O284        O  0.12265117  0.35203503  0.44615357    -0.75100
O285        O  0.12450348  0.40309805  0.44573321    -0.75000
O286        O  0.12203578  0.40121065  0.03362710    -0.75000
O287        O  0.16699155  0.40146736  0.49075891    -0.74900
O288        O  0.07947650  0.40368236  0.98748821    -0.75000
Ni289      Ni  0.12031747  0.34920411  0.99031820     1.25400
Ni290      Ni  0.12343047  0.40368562  0.98959787     1.25400
C291        C  0.06346647  0.37888453  0.98660530     0.87300
C292        C  0.18036607  0.37561675  0.49169903     0.87200
C293        C  0.11949418  0.37577545  0.04857529     0.87200
C294        C  0.12408560  0.37776509  0.43154539     0.87400
O295        O  0.08359669  0.35441525  0.24344345    -0.74900
O296        O  0.17115621  0.35278909  0.24260576    -0.75000
O297        O  0.12795393  0.35484452  0.28633899    -0.75000
O298        O  0.12574905  0.35218899  0.19899686    -0.75100
O299        O  0.13112624  0.40261817  0.19582784    -0.75000
O300        O  0.12750083  0.40584329  0.28348040    -0.75000
O301        O  0.17297185  0.40378978  0.24181218    -0.74900
O302        O  0.08542937  0.40479160  0.23684262    -0.75000
Ni303      Ni  0.12718434  0.35174317  0.24288647     1.25400
Ni304      Ni  0.12931931  0.40611216  0.23944306     1.25400
C305        C  0.06983093  0.37974565  0.23907978     0.87300
C306        C  0.18652456  0.37803458  0.24313372     0.87200
C307        C  0.12774982  0.38075507  0.29933990     0.87200
C308        C  0.12736337  0.37683489  0.18273839     0.87400
O309        O  0.91621734  0.35222845  0.98274271    -0.74900
O310        O  0.82851063  0.34859719  0.48196106    -0.75000
O311        O  0.87276346  0.35132830  0.43832031    -0.75000
O312        O  0.87238123  0.34983428  0.02646385    -0.75100
O313        O  0.87164537  0.40086666  0.02589207    -0.75000
O314        O  0.87060999  0.40228875  0.43800988    -0.75000
O315        O  0.82708002  0.39940746  0.98238133    -0.74900
O316        O  0.91495300  0.40332607  0.48137208    -0.75000
Ni317      Ni  0.87242991  0.34859539  0.98243893     1.25400
Ni318      Ni  0.87096663  0.40318663  0.98185257     1.25400
C319        C  0.93013459  0.37826492  0.98188676     0.87300
C320        C  0.81333059  0.37324661  0.98242401     0.87200
C321        C  0.87191505  0.37708752  0.42367092     0.87200
C322        C  0.87224388  0.37519302  0.04068376     0.87400
O323        O  0.92057225  0.35175576  0.23399736    -0.74900
O324        O  0.83269711  0.35078596  0.23401757    -0.75000
O325        O  0.87629412  0.34960550  0.18962676    -0.75000
O326        O  0.87686117  0.35234789  0.27747575    -0.75100
O327        O  0.87722900  0.40333810  0.27490284    -0.75000
O328        O  0.87643578  0.40059356  0.18687021    -0.75000
O329        O  0.83315647  0.40172759  0.23100727    -0.74900
O330        O  0.92065470  0.40224984  0.23036101    -0.75000
Ni331      Ni  0.87663489  0.34930490  0.23377094     1.25400
Ni332      Ni  0.87693645  0.40376790  0.23067992     1.25400
C333        C  0.93541593  0.37729384  0.23261608     0.87300
C334        C  0.81840413  0.37620882  0.23299571     0.87200
C335        C  0.87592966  0.37465382  0.17373798     0.87200
C336        C  0.87674860  0.37819711  0.29070691     0.87400
C337        C  0.89632464  0.39636494  0.34172099    -0.02300
C338        C  0.87526045  0.37866574  0.32472448     0.07300
C339        C  0.85284396  0.36072112  0.34043458    -0.02500
C340        C  0.85172506  0.36021247  0.37272338    -0.02500
C341        C  0.87283886  0.37782199  0.38967837     0.07500
C342        C  0.89505969  0.39601853  0.37403495    -0.02700
Br343      Br  0.92508283  0.41919403  0.39688919    -0.01200
Br344      Br  0.92829352  0.41965016  0.32109420    -0.01300
Br345      Br  0.82022499  0.33631754  0.39357655    -0.01200
Br346      Br  0.82248970  0.33777782  0.31778824    -0.01200
C347        C  0.89620471  0.35897676  0.09070668    -0.02300
C348        C  0.87298254  0.37480499  0.07471293     0.07300
C349        C  0.85051883  0.39019030  0.09136396    -0.02500
C350        C  0.85154259  0.39010859  0.12368249    -0.02500
C351        C  0.87449761  0.37385379  0.13972137     0.07500
C352        C  0.89636344  0.35762567  0.12304795    -0.02700
Br353      Br  0.92721760  0.33414576  0.14426904    -0.01200
Br354      Br  0.92946898  0.34144138  0.06835489    -0.01300
Br355      Br  0.82033595  0.41104600  0.14597815    -0.01200
Br356      Br  0.81749532  0.41043966  0.07002287    -0.01200
C357        C  0.98719792  0.35155155  0.22785360    -0.02300
C358        C  0.96994332  0.37810561  0.23381527     0.07300
C359        C  0.98624970  0.40568300  0.24074253    -0.02500
C360        C  0.01853020  0.40623306  0.24273141    -0.02500
C361        C  0.03556218  0.37979001  0.23635459     0.07500
C362        C  0.01946880  0.35298100  0.22730744    -0.02700
Br363      Br  0.04091849  0.31842540  0.21084955    -0.01200
Br364      Br  0.96797949  0.31203957  0.22045308    -0.01300
Br365      Br  0.03857814  0.44410577  0.25468121    -0.01200
Br366      Br  0.96555914  0.44365625  0.24881328    -0.01200
C367        C  0.10403199  0.39628094  0.38099541    -0.02300
C368        C  0.12509391  0.37838915  0.39777389     0.07300
C369        C  0.14729947  0.36163167  0.38219966    -0.02500
C370        C  0.14881457  0.36331311  0.35000876    -0.02500
C371        C  0.12774076  0.38127109  0.33317477     0.07500
C372        C  0.10554441  0.39797396  0.34882009    -0.02700
Br373      Br  0.07601731  0.42205169  0.32643371    -0.01200
Br374      Br  0.07133293  0.41645210  0.40191306    -0.01300
Br375      Br  0.18094791  0.34214807  0.32920510    -0.01200
Br376      Br  0.17615162  0.33668035  0.40475924    -0.01200
C377        C  0.11275174  0.40158323  0.13176127    -0.02300
C378        C  0.12399935  0.37591487  0.14852535     0.07300
C379        C  0.13057634  0.34892051  0.13237015    -0.02500
C380        C  0.12753284  0.34830941  0.10015142    -0.02500
C381        C  0.11913901  0.37502201  0.08308014     0.07500
C382        C  0.11084042  0.40138886  0.09947260    -0.02700
Br383      Br  0.09471070  0.43733273  0.07869774    -0.01200
Br384      Br  0.09721711  0.43704914  0.15243511    -0.01300
Br385      Br  0.13501906  0.30962844  0.08062665    -0.01200
Br386      Br  0.14443942  0.31208255  0.15348341    -0.01200
C387        C  0.01249783  0.40132533  0.00101163    -0.02300
C388        C  0.02938854  0.38020807  0.98397181     0.07300
C389        C  0.01336620  0.35984926  0.46493928    -0.02500
C390        C  0.98108474  0.35979319  0.46369882    -0.02500
C391        C  0.96424838  0.37952243  0.98192363     0.07500
C392        C  0.98022054  0.40078216  0.00024094    -0.02700
Br393      Br  0.95816627  0.42813368  0.02621485    -0.01200
Br394      Br  0.03295349  0.43096073  0.02629752    -0.01300
Br395      Br  0.96016127  0.33341938  0.43514933    -0.01200
Br396      Br  0.03541027  0.33366875  0.43782458    -0.01200
C397        C  0.73465246  0.35378844  0.22090932    -0.02300
C398        C  0.71972139  0.37432051  0.24018202     0.07300
C399        C  0.73724818  0.39581764  0.25667489    -0.02500
C400        C  0.76938309  0.39675001  0.25402949    -0.02500
C401        C  0.78440887  0.37613965  0.23475966     0.07500
C402        C  0.76675371  0.35503267  0.21779613    -0.02700
Br403      Br  0.78612060  0.32900438  0.18859845    -0.01200
Br404      Br  0.71137929  0.32255465  0.20005142    -0.01300
Br405      Br  0.79245595  0.42600300  0.27781578    -0.01200
Br406      Br  0.71725766  0.42481218  0.28241917    -0.01200
C407        C  0.64957588  0.48322489  0.23169744    -0.02300
C408        C  0.62770155  0.46572088  0.24851686     0.07300
C409        C  0.60561515  0.48080962  0.26598618    -0.02500
C410        C  0.60534890  0.51310021  0.26650941    -0.02500
C411        C  0.62759838  0.53058275  0.25016808     0.07500
C412        C  0.64967609  0.51548718  0.23270242    -0.02700
Br413      Br  0.68109459  0.53889342  0.21118896    -0.01200
Br414      Br  0.68040899  0.46299800  0.20829368    -0.01300
Br415      Br  0.57316471  0.53341196  0.28797225    -0.01200
Br416      Br  0.57469582  0.45733115  0.28813599    -0.01200
C417        C  0.73131347  0.35459776  0.00632113    -0.02300
C418        C  0.71448794  0.37224680  0.48352065     0.07300
C419        C  0.73061035  0.38681355  0.45890263    -0.02500
C420        C  0.76290107  0.38748781  0.45877944    -0.02500
C421        C  0.77939295  0.37175050  0.98252023     0.07500
C422        C  0.76356387  0.35465565  0.00543236    -0.02700
Br423      Br  0.78600052  0.33185651  0.03634062    -0.01200
Br424      Br  0.71055385  0.32802905  0.03594593    -0.01300
Br425      Br  0.78463374  0.40874376  0.42590683    -0.01200
Br426      Br  0.70944986  0.40452375  0.42409055    -0.01200
C427        C  0.64349539  0.48503649  0.47820278    -0.02300
C428        C  0.62064169  0.46734041  0.99436181     0.07300
C429        C  0.59786078  0.48251381  0.01080763    -0.02500
C430        C  0.59698880  0.51479575  0.01054031    -0.02500
C431        C  0.61966755  0.53254805  0.49340027     0.07500
C432        C  0.64222475  0.51725622  0.47681381    -0.02700
Br433      Br  0.67213611  0.54021118  0.45275293    -0.01200
Br434      Br  0.67785725  0.46510155  0.46065940    -0.01300
Br435      Br  0.56477394  0.53500651  0.03212343    -0.01200
Br436      Br  0.56695570  0.45925788  0.03284152    -0.01200
C437        C  0.48893419  0.63883012  0.28000796    -0.02300
C438        C  0.47087800  0.62228041  0.25887513     0.07300
C439        C  0.48581462  0.60467810  0.23668373    -0.02500
C440        C  0.51805054  0.60514918  0.23449592    -0.02500
C441        C  0.53587924  0.62316833  0.25449924     0.07500
C442        C  0.52102705  0.64027613  0.27701233    -0.02700
Br443      Br  0.54428104  0.66797913  0.30248428    -0.01200
Br444      Br  0.47057979  0.65933017  0.31384968    -0.01300
Br445      Br  0.53755614  0.57984581  0.20475460    -0.01200
Br446      Br  0.46251448  0.57718494  0.21108829    -0.01200
C447        C  0.48067189  0.64764318  0.01675386    -0.02300
C448        C  0.46443237  0.62891134  0.49568879     0.07300
C449        C  0.48001299  0.60913984  0.47605991    -0.02500
C450        C  0.51227146  0.60800686  0.47663264    -0.02500
C451        C  0.52831845  0.62588221  0.99835274     0.07500
C452        C  0.51286731  0.64629041  0.01737773    -0.02700
Br453      Br  0.53562393  0.67333106  0.04383724    -0.01200
Br454      Br  0.46040943  0.67823998  0.04035111    -0.01300
Br455      Br  0.53283002  0.57930925  0.45100458    -0.01200
Br456      Br  0.45745583  0.58263560  0.44891603    -0.01200
C457        C  0.26804937  0.39509571  0.26975146    -0.02300
C458        C  0.28507579  0.37560591  0.25105797     0.07300
C459        C  0.26941304  0.35707433  0.22977240    -0.02500
C460        C  0.23741391  0.35852747  0.22663047    -0.02500
C461        C  0.22038255  0.37744326  0.24572262     0.07500
C462        C  0.23583950  0.39548966  0.26756947    -0.02700
Br463      Br  0.21299246  0.41984271  0.29570660    -0.01200
Br464      Br  0.28862677  0.42278225  0.29722258    -0.01300
Br465      Br  0.21725880  0.33572067  0.19474699    -0.01200
Br466      Br  0.29125074  0.32826515  0.20562868    -0.01200
C467        C  0.48713442  0.35737438  0.27717449    -0.02300
C468        C  0.47034430  0.37694503  0.25729684     0.07300
C469        C  0.48652144  0.39619160  0.23614629    -0.02500
C470        C  0.51870826  0.39519203  0.23429189    -0.02500
C471        C  0.53529426  0.37453223  0.25312911     0.07500
C472        C  0.51926391  0.35564851  0.27460052    -0.02700
Br473      Br  0.54087975  0.32550150  0.29912866    -0.01200
Br474      Br  0.46658674  0.33190830  0.30759301    -0.01300
Br475      Br  0.53996249  0.42356129  0.20676131    -0.01200
Br476      Br  0.46499173  0.42557441  0.21057419    -0.01200
C477        C  0.39829707  0.51634404  0.27526406    -0.02300
C478        C  0.37677649  0.53282281  0.25746907     0.07300
C479        C  0.35504740  0.51655797  0.23987135    -0.02500
C480        C  0.35526903  0.48427944  0.23948518    -0.02500
C481        C  0.37709853  0.46788557  0.25687701     0.07500
C482        C  0.39830027  0.48405820  0.27514160    -0.02700
Br483      Br  0.42828007  0.46213231  0.29929506    -0.01200
Br484      Br  0.42897249  0.53786744  0.29882584    -0.01300
Br485      Br  0.32420452  0.46249217  0.21665630    -0.01200
Br486      Br  0.32348778  0.53817557  0.21783485    -0.01200
C487        C  0.26215070  0.35951791  0.01804040    -0.02300
C488        C  0.27940811  0.37468726  0.99448465     0.07300
C489        C  0.26364343  0.38915356  0.46901382    -0.02500
C490        C  0.23134501  0.38912267  0.46832771    -0.02500
C491        C  0.21421141  0.37379907  0.99278660     0.07500
C492        C  0.22986777  0.35934961  0.01720404    -0.02700
Br493      Br  0.20698900  0.34083253  0.05071203    -0.01200
Br494      Br  0.28198129  0.33656159  0.05072118    -0.01300
Br495      Br  0.21025072  0.40821760  0.43406536    -0.01200
Br496      Br  0.28521846  0.40792609  0.43457326    -0.01200
C497        C  0.48220183  0.38302621  0.03113453    -0.02300
C498        C  0.46481739  0.37303820  0.00560050     0.07300
C499        C  0.48026860  0.35717772  0.48138271    -0.02500
C500        C  0.51248656  0.35549039  0.48137485    -0.02500
C501        C  0.53012385  0.36950782  0.50459889     0.07500
C502        C  0.51447049  0.38070932  0.03135050    -0.02700
Br503      Br  0.53640738  0.39170602  0.06815794    -0.01200
Br504      Br  0.46263001  0.40081205  0.06608515    -0.01300
Br505      Br  0.53202028  0.33060015  0.45113184    -0.01200
Br506      Br  0.45765561  0.33592179  0.44982498    -0.01200
C507        C  0.34537649  0.51829654  0.49606662    -0.02300
C508        C  0.37121875  0.53493559  0.00396726     0.07300
C509        C  0.39782527  0.51920370  0.01293960    -0.02500
C510        C  0.39860087  0.48697632  0.01163137    -0.02500
C511        C  0.37292321  0.47017124  0.50168670     0.07500
C512        C  0.34548505  0.48600314  0.49642140    -0.02700
Br513      Br  0.30774773  0.46342141  0.49111730    -0.01200
Br514      Br  0.30805222  0.53979347  0.48721916    -0.01300
Br515      Br  0.43614333  0.46597992  0.02026131    -0.01200
Br516      Br  0.43340180  0.54182965  0.02657560    -0.01200
C517        C  0.60572954  0.76408236  0.23498599    -0.02300
C518        C  0.62477858  0.78076265  0.25510797     0.07300
C519        C  0.64519484  0.76463474  0.27456154    -0.02500
C520        C  0.64676714  0.73238507  0.27365766    -0.02500
C521        C  0.62734656  0.71568627  0.25395184     0.07500
C522        C  0.60669176  0.73178831  0.23472538    -0.02700
Br523      Br  0.57851356  0.70978843  0.20867287    -0.01200
Br524      Br  0.57929446  0.78533538  0.20626002    -0.01300
Br525      Br  0.67696674  0.71134807  0.29833216    -0.01200
Br526      Br  0.67033299  0.78638120  0.30362796    -0.01200
C527        C  0.64859572  0.76501154  0.51503750    -0.02300
C528        C  0.62194038  0.78151621  0.00460375     0.07300
C529        C  0.59576714  0.76479211  0.99416693    -0.02500
C530        C  0.59673379  0.73270146  0.99158750    -0.02500
C531        C  0.62279150  0.71672848  0.50299468     0.07500
C532        C  0.64747034  0.73269060  0.51622298    -0.02700
Br533      Br  0.67981326  0.71014024  0.53633120    -0.01200
Br534      Br  0.68641102  0.78456174  0.52761023    -0.01300
Br535      Br  0.56329973  0.71085713  0.97224750    -0.01200
Br536      Br  0.55762276  0.78419798  0.98356765    -0.01200
C537        C  0.64029557  0.89662730  0.39373657    -0.02300
C538        C  0.62114837  0.87626108  0.41089092     0.07300
C539        C  0.60113603  0.85622465  0.39518609    -0.02500
C540        C  0.60106743  0.85569725  0.36290844    -0.02500
C541        C  0.62043305  0.87579893  0.34582677     0.07500
C542        C  0.63946856  0.89679880  0.36140750    -0.02700
Br543      Br  0.66291402  0.92747827  0.33858470    -0.01200
Br544      Br  0.66692240  0.92545641  0.41421226    -0.01300
Br545      Br  0.57543000  0.82599055  0.34238281    -0.01200
Br546      Br  0.57465005  0.82801726  0.41750142    -0.01200
C547        C  0.60603112  0.89511999  0.14439518    -0.02300
C548        C  0.62374593  0.87378255  0.16115055     0.07300
C549        C  0.64209198  0.85312847  0.14538206    -0.02500
C550        C  0.64240828  0.85351681  0.11309016    -0.02500
C551        C  0.62432687  0.87450496  0.09616934     0.07500
C552        C  0.60611829  0.89534717  0.11207833    -0.02700
Br553      Br  0.58215629  0.92535713  0.08987098    -0.01200
Br554      Br  0.58302153  0.92545843  0.16566291    -0.01300
Br555      Br  0.66637570  0.82376649  0.09246387    -0.01200
Br556      Br  0.66577357  0.82311312  0.16797985    -0.01200
C557        C  0.60498188  0.26468866  0.22805778    -0.02300
C558        C  0.62706195  0.28074468  0.24541169     0.07300
C559        C  0.64847249  0.26406590  0.26313158    -0.02500
C560        C  0.64712232  0.23175930  0.26442182    -0.02500
C561        C  0.62495932  0.21563083  0.24714215     0.07500
C562        C  0.60384671  0.23237685  0.22898284    -0.02700
Br563      Br  0.57343982  0.21143124  0.20451745    -0.01200
Br564      Br  0.57545207  0.28677914  0.20343508    -0.01300
Br565      Br  0.67454500  0.20999339  0.29172984    -0.01200
Br566      Br  0.68107319  0.28533113  0.28430243    -0.01200
C567        C  0.63714405  0.98222587  0.22725401    -0.02300
C568        C  0.61954257  0.96570206  0.24932564     0.07300
C569        C  0.60092319  0.98170530  0.26969806    -0.02500
C570        C  0.60048187  0.01397510  0.26854339    -0.02500
C571        C  0.61871018  0.03057023  0.24698284     0.07500
C572        C  0.63640162  0.01447972  0.22582195    -0.02700
Br573      Br  0.65799146  0.03640533  0.19330813    -0.01200
Br574      Br  0.66152815  0.96075058  0.19804990    -0.01300
Br575      Br  0.57573894  0.03517453  0.29764287    -0.01200
Br576      Br  0.57739053  0.95958144  0.30069228    -0.01200
C577        C  0.60744366  0.23242575  0.01852880    -0.02300
C578        C  0.62487296  0.21700000  0.99668724     0.07300
C579        C  0.64257143  0.23452688  0.47368871    -0.02500
C580        C  0.64139530  0.26680749  0.47274388    -0.02500
C581        C  0.62357757  0.28199053  0.99596054     0.07500
C582        C  0.60692524  0.26471992  0.01830207    -0.02700
Br583      Br  0.58225148  0.28500900  0.04813418    -0.01200
Br584      Br  0.58513156  0.20936875  0.04976391    -0.01300
Br585      Br  0.66472910  0.28944634  0.44196244    -0.01200
Br586      Br  0.66670617  0.21374415  0.44378592    -0.01200
C587        C  0.61466175  0.14845549  0.38748927    -0.02300
C588        C  0.62972797  0.12545839  0.40474036     0.07300
C589        C  0.64425505  0.10161668  0.38935258    -0.02500
C590        C  0.64258991  0.10011431  0.35707973    -0.02500
C591        C  0.62696604  0.12281523  0.33992314     0.07500
C592        C  0.61342712  0.14722037  0.35526267    -0.02700
Br593      Br  0.59422379  0.17985313  0.33201230    -0.01200
Br594      Br  0.59677094  0.18258179  0.40785038    -0.01300
Br595      Br  0.66008001  0.06585743  0.33659602    -0.01200
Br596      Br  0.66540713  0.07022212  0.41250689    -0.01200
C597        C  0.60127646  0.10356343  0.13878372    -0.02300
C598        C  0.61824434  0.12573989  0.15496548     0.07300
C599        C  0.63567938  0.14802544  0.13850307    -0.02500
C600        C  0.63748908  0.14721865  0.10627061    -0.02500
C601        C  0.62109685  0.12461868  0.09002417     0.07500
C602        C  0.60261200  0.10305074  0.10645657    -0.02700
Br603      Br  0.58044471  0.07146664  0.08499105    -0.01200
Br604      Br  0.57721415  0.07291426  0.16090944    -0.01300
Br605      Br  0.66168076  0.17801186  0.08448104    -0.01200
Br606      Br  0.65554882  0.18101996  0.16005417    -0.01200
C607        C  0.60998043  0.98369214  0.47718078    -0.02300
C608        C  0.62503084  0.96717857  0.00114485     0.07300
C609        C  0.64039081  0.98369517  0.02411674    -0.02500
C610        C  0.64120621  0.01599241  0.02284593    -0.02500
C611        C  0.62604339  0.03205638  0.99894235     0.07500
C612        C  0.61046573  0.01598955  0.47604843    -0.02700
Br613      Br  0.59121041  0.03733621  0.44207294    -0.01200
Br614      Br  0.59027995  0.96130743  0.44474368    -0.01300
Br615      Br  0.66205798  0.03809688  0.05477101    -0.01200
Br616      Br  0.65886017  0.96209291  0.05838459    -0.01200
C617        C  0.26948941  0.63849434  0.28406724    -0.02300
C618        C  0.28533911  0.62812214  0.25781589     0.07300
C619        C  0.26779690  0.61933236  0.23175691    -0.02500
C620        C  0.23556007  0.61884860  0.23295936    -0.02500
C621        C  0.22035980  0.62871763  0.25915259     0.07500
C622        C  0.23726915  0.63930169  0.28427433    -0.02700
Br623      Br  0.21588453  0.65489887  0.31921666    -0.01200
Br624      Br  0.29073857  0.65309877  0.32004494    -0.01300
Br625      Br  0.21173962  0.60506428  0.19835550    -0.01200
Br626      Br  0.28650535  0.60789056  0.19365943    -0.01200
C627        C  0.22889591  0.64451567  0.98831639    -0.02300
C628        C  0.21373747  0.62660879  0.01107056     0.07300
C629        C  0.23211083  0.60872204  0.53314815    -0.02500
C630        C  0.26436531  0.60945567  0.53162599    -0.02500
C631        C  0.27955733  0.62620562  0.50772537     0.07500
C632        C  0.26110461  0.64469199  0.98645168    -0.02700
Br633      Br  0.28082861  0.67073418  0.95574104    -0.01200
Br634      Br  0.20538068  0.66785350  0.95863102    -0.01300
Br635      Br  0.28705624  0.58619686  0.56200923    -0.01200
Br636      Br  0.21165600  0.58622944  0.56602155    -0.01200
C637        C  0.12260882  0.65786083  0.37041739    -0.02300
C638        C  0.13440674  0.63313847  0.35404725     0.07300
C639        C  0.14825825  0.60887720  0.37068038    -0.02500
C640        C  0.14509739  0.60628544  0.40277697    -0.02500
C641        C  0.12941550  0.62899135  0.41902440     0.07500
C642        C  0.11990201  0.65575867  0.40261994    -0.02700
Br643      Br  0.10258906  0.69030421  0.42310289    -0.01200
Br644      Br  0.11104975  0.69557704  0.34958234    -0.01300
Br645      Br  0.16443444  0.57222032  0.42389936    -0.01200
Br646      Br  0.17515241  0.58120252  0.35003456    -0.01200
C647        C  0.11667820  0.59287296  0.12208104    -0.02300
C648        C  0.12579798  0.61889121  0.10412170     0.07300
C649        C  0.13960062  0.64414554  0.11911798    -0.02500
C650        C  0.14134970  0.64461574  0.15135172    -0.02500
C651        C  0.12897760  0.62010631  0.16942712     0.07500
C652        C  0.11855730  0.59332035  0.15441764    -0.02700
Br653      Br  0.10743252  0.55614584  0.17715125    -0.01200
Br654      Br  0.10118725  0.55604177  0.10322340    -0.01300
Br655      Br  0.16410674  0.67781641  0.17011657    -0.01200
Br656      Br  0.15874432  0.67780076  0.09609026    -0.01200
C657        C  0.76849653  0.59946913  0.27332283    -0.02300
C658        C  0.78598535  0.61819355  0.25294060     0.07300
C659        C  0.77078252  0.63741369  0.23154113    -0.02500
C660        C  0.73858495  0.63908309  0.23147235    -0.02500
C661        C  0.72098083  0.62073325  0.25216046     0.07500
C662        C  0.73621220  0.60058002  0.27283759    -0.02700
Br663      Br  0.71314087  0.57340317  0.30006882    -0.01200
Br664      Br  0.78862191  0.57297233  0.30288075    -0.01300
Br665      Br  0.71908093  0.66820918  0.20407987    -0.01200
Br666      Br  0.79398635  0.66055991  0.20101544    -0.01200
C667        C  0.98623412  0.63923652  0.28353439    -0.02300
C668        C  0.97096814  0.62514277  0.25881429     0.07300
C669        C  0.98834763  0.61232156  0.23531697    -0.02500
C670        C  0.02056688  0.61319600  0.23666841    -0.02500
C671        C  0.03587295  0.62625406  0.26181969     0.07500
C672        C  0.01854625  0.63945495  0.28519220    -0.02700
Br673      Br  0.03904427  0.65673928  0.32012448    -0.01200
Br674      Br  0.96297412  0.65754478  0.31567659    -0.01300
Br675      Br  0.04374502  0.59829546  0.20286039    -0.01200
Br676      Br  0.96803289  0.59509458  0.20019420    -0.01200
C677        C  0.76052779  0.59695485  0.01147582    -0.02300
C678        C  0.77832704  0.62327398  0.00219471     0.07300
C679        C  0.76346002  0.64901341  0.49048083    -0.02500
C680        C  0.73128963  0.64834864  0.48745684    -0.02500
C681        C  0.71306780  0.62329436  0.99847771     0.07500
C682        C  0.72826119  0.59751269  0.01039537    -0.02700
Br683      Br  0.70448418  0.56212921  0.02426905    -0.01200
Br684      Br  0.77882182  0.55937651  0.02648652    -0.01300
Br685      Br  0.71061757  0.68230759  0.46766372    -0.01200
Br686      Br  0.78434121  0.68684847  0.47858147    -0.01200
C687        C  0.85147332  0.63195651  0.39558313    -0.02300
C688        C  0.87380477  0.61648424  0.41317410     0.07300
C689        C  0.89647869  0.59981950  0.39806056    -0.02500
C690        C  0.89782899  0.60023220  0.36570674    -0.02500
C691        C  0.87595550  0.61654276  0.34824017     0.07500
C692        C  0.85231437  0.63168862  0.36334520    -0.02700
Br693      Br  0.81981275  0.65058697  0.33987665    -0.01200
Br694      Br  0.81842213  0.65213184  0.41545785    -0.01300
Br695      Br  0.93069323  0.57977800  0.34548342    -0.01200
Br696      Br  0.92639050  0.57714592  0.42153116    -0.01200
C697        C  0.89479185  0.64355978  0.11318135    -0.02300
C698        C  0.87185316  0.62621537  0.09820729     0.07300
C699        C  0.85011724  0.60956505  0.11600025    -0.02500
C700        C  0.85255348  0.60836178  0.14824067    -0.02500
C701        C  0.87583725  0.62520243  0.16322038     0.07500
C702        C  0.89639140  0.64350372  0.14553121    -0.02700
Br703      Br  0.92768041  0.66762230  0.16547913    -0.01200
Br704      Br  0.92513219  0.66636866  0.08957618    -0.01300
Br705      Br  0.82293383  0.58446649  0.17177377    -0.01200
Br706      Br  0.81537010  0.59046064  0.09637883    -0.01200
C707        C  0.97964061  0.60353826  0.03074053    -0.02300
C708        C  0.96392340  0.61992247  0.00743677     0.07300
C709        C  0.98194812  0.63451461  0.48395644    -0.02500
C710        C  0.01418066  0.63369163  0.48436166    -0.02500
C711        C  0.02889625  0.62045594  0.00893999     0.07500
C712        C  0.01194520  0.60382231  0.03146632    -0.02700
Br713      Br  0.03278396  0.58263830  0.06440780     0.03600
Br714      Br  0.95704949  0.58175944  0.06265273    -0.01300
Br715      Br  0.03675066  0.65173851  0.45056666    -0.01200
Br716      Br  0.96126177  0.65479948  0.45014325    -0.01200
C717        C  0.38715396  0.23261975  0.28057718    -0.02300
C718        C  0.37720375  0.21690138  0.25457589     0.07300
C719        C  0.36771898  0.23345325  0.22837318    -0.02500
C720        C  0.36870209  0.26579254  0.22775325    -0.02500
C721        C  0.37768361  0.28219380  0.25433380     0.07500
C722        C  0.38690336  0.26490802  0.28086960    -0.02700
Br723      Br  0.40063561  0.28404096  0.31812068    -0.01200
Br724      Br  0.40096628  0.20948298  0.31620665    -0.01300
Br725      Br  0.35788000  0.28616653  0.18953057    -0.01200
Br726      Br  0.35416274  0.21135842  0.19277130    -0.01200
C727        C  0.40010907  0.23817666  0.00791206    -0.02300
C728        C  0.37363239  0.22047237  0.00002484     0.07300
C729        C  0.34571660  0.23631510  0.49203854    -0.02500
C730        C  0.34548124  0.26867060  0.49123464    -0.02500
C731        C  0.37163372  0.28555797  0.49962405     0.07500
C732        C  0.39910831  0.27042863  0.00779569    -0.02700
Br733      Br  0.43455353  0.29418377  0.02009912    -0.01200
Br734      Br  0.43804955  0.21964432  0.51900737    -0.01300
Br735      Br  0.31028442  0.29046633  0.97688953    -0.01200
Br736      Br  0.30828149  0.21535222  0.48035674    -0.01200
C737        C  0.39232641  0.10387417  0.39694087    -0.02300
C738        C  0.37193620  0.12360204  0.41166457     0.07300
C739        C  0.35223215  0.14201249  0.39367372    -0.02500
C740        C  0.35433602  0.14225649  0.36144779    -0.02500
C741        C  0.37559850  0.12344862  0.34677685     0.07500
C742        C  0.39414057  0.10380943  0.36469152    -0.02700
Br743      Br  0.42081458  0.07529365  0.34520686    -0.01200
Br744      Br  0.41637603  0.07505551  0.42072448    -0.01300
Br745      Br  0.32889942  0.16987558  0.33771413    -0.01200
Br746      Br  0.32264016  0.16773217  0.41274158    -0.01200
C747        C  0.36006802  0.10617895  0.11388581    -0.02300
C748        C  0.37860722  0.12713649  0.09679573     0.07300
C749        C  0.39893571  0.14687256  0.11252231    -0.02500
C750        C  0.40033478  0.14605889  0.14484393    -0.02500
C751        C  0.38143237  0.12545234  0.16187609     0.07500
C752        C  0.36160609  0.10522346  0.14616739    -0.02700
Br753      Br  0.33760938  0.07463386  0.16862450    -0.01200
Br754      Br  0.33344768  0.07737600  0.09332192    -0.01300
Br755      Br  0.42719998  0.17451133  0.16555767    -0.01200
Br756      Br  0.42387656  0.17653211  0.09019063    -0.01200
C757        C  0.35720123  0.73341803  0.23691758    -0.02300
C758        C  0.37552940  0.71815633  0.25924394     0.07300
C759        C  0.39057803  0.73584246  0.28174028    -0.02500
C760        C  0.38874563  0.76805861  0.28085541    -0.02500
C761        C  0.37191107  0.78315536  0.25758215     0.07500
C762        C  0.35534637  0.76568487  0.23623025    -0.02700
Br763      Br  0.33053088  0.78595682  0.20543885    -0.01200
Br764      Br  0.33310644  0.71053236  0.20778730    -0.01300
Br765      Br  0.40829977  0.79160723  0.31264464    -0.01200
Br766      Br  0.41481676  0.71677961  0.31357107    -0.01200
C767        C  0.36452052  0.98320092  0.27493774    -0.02300
C768        C  0.38110283  0.96785638  0.25234620     0.07300
C769        C  0.39979811  0.98505523  0.23165917    -0.02500
C770        C  0.40054797  0.01734772  0.23255830    -0.02500
C771        C  0.38301571  0.03261107  0.25445694     0.07500
C772        C  0.36581006  0.01536812  0.27620005    -0.02700
Br773      Br  0.34562810  0.03576991  0.30916540    -0.01200
Br774      Br  0.34112670  0.96026206  0.30543058    -0.01300
Br775      Br  0.42462640  0.04061290  0.20283824    -0.01200
Br776      Br  0.42346515  0.96468183  0.20110665    -0.01200
C777        C  0.39003622  0.76955905  0.47959559    -0.02300
C778        C  0.37260952  0.78508967  0.00119319     0.07300
C779        C  0.35414239  0.76814728  0.02221390    -0.02500
C780        C  0.35339049  0.73586338  0.02188206    -0.02500
C781        C  0.37147937  0.72001459  0.00079894     0.07500
C782        C  0.39002821  0.73724084  0.47943299    -0.02700
Br783      Br  0.41630086  0.71687656  0.45106815    -0.01200
Br784      Br  0.41382899  0.79256620  0.44943078    -0.01300
Br785      Br  0.32617165  0.71366910  0.04961170    -0.01200
Br786      Br  0.33068705  0.78902899  0.05262606    -0.01200
C787        C  0.39234701  0.90019016  0.39294543    -0.02300
C788        C  0.37448476  0.87851418  0.40982091     0.07300
C789        C  0.35757526  0.85595681  0.39407339    -0.02500
C790        C  0.35788009  0.85555428  0.36178797    -0.02500
C791        C  0.37613307  0.87690187  0.34491790     0.07500
C792        C  0.39355911  0.89908584  0.36066561    -0.02700
Br793      Br  0.41795794  0.92909828  0.33803915    -0.01200
Br794      Br  0.41380025  0.93262331  0.41384216    -0.01300
Br795      Br  0.33392693  0.82484812  0.34085369    -0.01200
Br796      Br  0.33543716  0.82417983  0.41667375    -0.01200
C797        C  0.38721681  0.85116187  0.11144172    -0.02300
C798        C  0.37238572  0.87485565  0.09496353     0.07300
C799        C  0.35807003  0.89829065  0.11110506    -0.02500
C800        C  0.35924954  0.89843861  0.14341227    -0.02500
C801        C  0.37430670  0.87487431  0.15990162     0.07500
C802        C  0.38800301  0.85106151  0.14377564    -0.02700
Br803      Br  0.40641948  0.81732289  0.16597816    -0.01200
Br804      Br  0.40523294  0.81793052  0.08975005    -0.01300
Br805      Br  0.34154175  0.93195214  0.16496805    -0.01200
Br806      Br  0.33784866  0.93103046  0.08899377    -0.01200
C807        C  0.39096040  0.01766357  0.52675527    -0.02300
C808        C  0.37497618  0.03486157  0.00531249     0.07300
C809        C  0.35803918  0.01942955  0.98263246    -0.02500
C810        C  0.35699994  0.98717017  0.98249836    -0.02500
C811        C  0.37397231  0.97001340  0.00428616     0.07500
C812        C  0.39068203  0.98539570  0.52612466    -0.02700
Br813      Br  0.41316308  0.96261480  0.55697354    -0.01200
Br814      Br  0.41287788  0.03848198  0.55886566    -0.01300
Br815      Br  0.33295985  0.96674853  0.95161545    -0.01200
Br816      Br  0.33785953  0.04247013  0.95030696    -0.01200
O817        O  0.34823849  0.92128780  0.00280772    -0.74900
O818        O  0.34694006  0.83329506  0.50107455    -0.75000
O819        O  0.34625757  0.87561698  0.54591028    -0.75000
O820        O  0.34881140  0.87902904  0.95792220    -0.75100
O821        O  0.39978654  0.87919220  0.95887705    -0.75000
O822        O  0.39725486  0.87630798  0.54689827    -0.75000
O823        O  0.39868693  0.83379858  0.00237568    -0.74900
O824        O  0.39828580  0.92163847  0.50323751    -0.75000
Ni825      Ni  0.34532217  0.87720382  0.50179354     1.25400
Ni826      Ni  0.39990569  0.87771283  0.50293273     1.25400
C827        C  0.37288688  0.93588370  0.50318081     0.87300
C828        C  0.37306809  0.81913407  0.00151958     0.87200
C829        C  0.37151900  0.87552361  0.56090367     0.87200
C830        C  0.37454883  0.87924536  0.94388729     0.87400
O831        O  0.35220366  0.92000493  0.75085703    -0.74900
O832        O  0.34791182  0.83207829  0.75498180    -0.75000
O833        O  0.35078921  0.87720285  0.79667193    -0.75000
O834        O  0.34892310  0.87513166  0.70892015    -0.75100
O835        O  0.39986784  0.87395036  0.70793014    -0.75000
O836        O  0.40169642  0.87529463  0.79616099    -0.75000
O837        O  0.39883731  0.83073132  0.75379877    -0.74900
O838        O  0.40311619  0.91847467  0.75062660    -0.75000
Ni839      Ni  0.34816544  0.87615066  0.75283765     1.25400
Ni840      Ni  0.40269629  0.87453534  0.75203333     1.25400
C841        C  0.37835408  0.93372618  0.75072943     0.87300
C842        C  0.37278737  0.81692547  0.75522649     0.87200
C843        C  0.37643024  0.87657968  0.81091619     0.87200
C844        C  0.37402269  0.87439876  0.69392514     0.87400
O845        O  0.34894539  0.08249301  0.50622323    -0.74900
O846        O  0.34895429  0.17049983  0.00357271    -0.75000
O847        O  0.34772261  0.12545783  0.96106267    -0.75000
O848        O  0.35035463  0.12688507  0.54894662    -0.75100
O849        O  0.40120259  0.12777738  0.54705758    -0.75000
O850        O  0.39859474  0.12678747  0.95943585    -0.75000
O851        O  0.39873760  0.17157976  0.50142789    -0.74900
O852        O  0.40053824  0.08375677  0.00488036    -0.75000
Ni853      Ni  0.34687540  0.12629266  0.50499715     1.25400
Ni854      Ni  0.40127758  0.12762707  0.50309231     1.25400
C855        C  0.37447279  0.06859455  0.50528269     0.87300
C856        C  0.37330089  0.18573136  0.50191135     0.87200
C857        C  0.37271305  0.12529867  0.94573963     0.87200
C858        C  0.37638324  0.12722681  0.56257712     0.87400
O859        O  0.35502140  0.07973607  0.75283740    -0.74900
O860        O  0.35277107  0.16748662  0.75435604    -0.75000
O861        O  0.35474862  0.12539033  0.70990738    -0.75000
O862        O  0.35244661  0.12167319  0.79735419    -0.75100
O863        O  0.40331716  0.12473304  0.79930085    -0.75000
O864        O  0.40566889  0.12603368  0.71102373    -0.75000
O865        O  0.40380473  0.16929403  0.75505351    -0.74900
O866        O  0.40595331  0.08165433  0.75537363    -0.75000
Ni867      Ni  0.35197193  0.12350674  0.75357344     1.25400
Ni868      Ni  0.40653922  0.12553132  0.75523335     1.25400
C869        C  0.38085218  0.06626714  0.75391850     0.87300
C870        C  0.37802553  0.18277572  0.75489286     0.87200
C871        C  0.38042416  0.12571482  0.69592421     0.87200
C872        C  0.37729542  0.12298778  0.81283591     0.87400
O873        O  0.91640443  0.64636291  0.00473287    -0.74900
O874        O  0.82936318  0.64767306  0.50308207    -0.75000
O875        O  0.87294787  0.64980640  0.54749062    -0.75000
O876        O  0.87299640  0.64525562  0.96003806    -0.75100
O877        O  0.87190624  0.59427895  0.96341739    -0.75000
O878        O  0.87053109  0.59891700  0.55152558    -0.75000
O879        O  0.82689143  0.59751006  0.00550147    -0.74900
O880        O  0.91548672  0.59531220  0.50899486    -0.75000
Ni881      Ni  0.87339876  0.64884666  0.50347751     1.25400
Ni882      Ni  0.87159280  0.59442187  0.50767345     1.25400
C883        C  0.93088403  0.62047751  0.50698720     0.87300
C884        C  0.81287916  0.62300939  0.00385825     0.87200
C885        C  0.87179115  0.62521444  0.56404624     0.87200
C886        C  0.87275163  0.61912181  0.94723057     0.87400
O887        O  0.92194007  0.64995923  0.75760267    -0.74900
O888        O  0.83412997  0.64601353  0.75572958    -0.75000
O889        O  0.87733843  0.64564145  0.80046765    -0.75000
O890        O  0.87828669  0.64998262  0.71240330    -0.75100
O891        O  0.87978584  0.59906182  0.71129224    -0.75000
O892        O  0.87845314  0.59467762  0.79928587    -0.75000
O893        O  0.83520660  0.59508646  0.75432641    -0.74900
O894        O  0.92331298  0.59899852  0.75640640    -0.75000
Ni895      Ni  0.87794032  0.64969023  0.75656965     1.25400
Ni896      Ni  0.87932097  0.59514699  0.75526598     1.25400
C897        C  0.93710485  0.62510347  0.75775009     0.87300
C898        C  0.82014960  0.62005087  0.75452871     0.87200
C899        C  0.87746013  0.61945573  0.81436009     0.87200
C900        C  0.87844373  0.62513779  0.69729759     0.87400
O901        O  0.07796149  0.64532027  0.51002524    -0.74900
O902        O  0.16495951  0.65037926  0.01479535    -0.75000
O903        O  0.12393890  0.65242936  0.96919127    -0.75000
O904        O  0.11968287  0.64376329  0.55622007    -0.75100
O905        O  0.12408190  0.59334566  0.55452114    -0.75000
O906        O  0.12187677  0.60182855  0.96610437    -0.75000
O907        O  0.16686599  0.59756267  0.51000786    -0.74900
O908        O  0.07800781  0.59659169  0.01052429    -0.75000
Ni909      Ni  0.12187835  0.64855614  0.51265208     1.25400
Ni910      Ni  0.12301645  0.59425368  0.51026972     1.25400
C911        C  0.06388359  0.61934392  0.50973102     0.87300
C912        C  0.18077631  0.62345267  0.51224001     0.87200
C913        C  0.12454259  0.62840667  0.95308909     0.87200
C914        C  0.12297224  0.61788799  0.57005990     0.87400
O915        O  0.08480852  0.65299774  0.76186631    -0.74900
O916        O  0.17258748  0.65317803  0.75698562    -0.75000
O917        O  0.12611613  0.64857969  0.71574366    -0.75000
O918        O  0.13197222  0.65683906  0.80299776    -0.75100
O919        O  0.12914123  0.60621278  0.80860293    -0.75000
O920        O  0.12847018  0.59812623  0.72144598    -0.75000
O921        O  0.17232727  0.60248473  0.76457962    -0.74900
O922        O  0.08432016  0.60200066  0.76524269    -0.75000
Ni923      Ni  0.12878880  0.65472469  0.75919791     1.25400
Ni924      Ni  0.12842008  0.60041305  0.76523257     1.25400
C925        C  0.07004607  0.62743443  0.76363451     0.87300
C926        C  0.18683443  0.62793413  0.76031631     0.87200
C927        C  0.12767495  0.62200183  0.70396026     0.87200
C928        C  0.13193174  0.63274808  0.82029925     0.87400
O929        O  0.65126750  0.08109413  0.99911068    -0.74900
O930        O  0.65148347  0.16941792  0.49786997    -0.75000
O931        O  0.64908644  0.12509687  0.54267011    -0.75000
O932        O  0.65283576  0.12552717  0.95444920    -0.75100
O933        O  0.60187371  0.12446011  0.95237227    -0.75000
O934        O  0.59818661  0.12429588  0.53993093    -0.75000
O935        O  0.59975893  0.16794455  0.99572820    -0.74900
O936        O  0.60050263  0.08067199  0.49660702    -0.75000
Ni937      Ni  0.65321330  0.12546339  0.49865195     1.25400
Ni938      Ni  0.59868084  0.12462407  0.49588136     1.25400
C939        C  0.62597022  0.06658267  0.49815587     0.87300
C940        C  0.62513898  0.18299113  0.99682240     0.87200
C941        C  0.62286026  0.12469761  0.55583749     0.87200
C942        C  0.62788675  0.12509000  0.93891046     0.87400
O943        O  0.64482016  0.07860384  0.74656520    -0.74900
O944        O  0.64769746  0.16657806  0.74629479    -0.75000
O945        O  0.64856167  0.12159089  0.79044068    -0.75000
O946        O  0.64435060  0.12358961  0.70254138    -0.75100
O947        O  0.59345401  0.12490006  0.70448478    -0.75000
O948        O  0.59763508  0.12178151  0.79272711    -0.75000
O949        O  0.59693159  0.16721394  0.74940551    -0.74900
O950        O  0.59391741  0.07938012  0.74798864    -0.75000
Ni951      Ni  0.64813868  0.12253271  0.74638494     1.25400
Ni952      Ni  0.59366623  0.12332133  0.74873223     1.25400
C953        C  0.61888615  0.06447467  0.74720687     0.87300
C954        C  0.62274475  0.18148579  0.74787985     0.87200
C955        C  0.62381828  0.12162503  0.80608160     0.87200
C956        C  0.61834830  0.12470848  0.68899005     0.87400
O957        O  0.64962466  0.91947575  0.50223792    -0.74900
O958        O  0.64795018  0.83083624  0.00343291    -0.75000
O959        O  0.64818258  0.87519925  0.95915058    -0.75000
O960        O  0.65032321  0.87534109  0.54696705    -0.75100
O961        O  0.59944084  0.87483656  0.54813562    -0.75000
O962        O  0.59727493  0.87507097  0.95983573    -0.75000
O963        O  0.59802724  0.83118158  0.50523579    -0.74900
O964        O  0.59865148  0.91880695  0.00282690    -0.75000
Ni965      Ni  0.65093040  0.87550775  0.50286560     1.25400
Ni966      Ni  0.59650331  0.87516032  0.50429040     1.25400
C967        C  0.62426914  0.93377899  0.50245883     0.87300
C968        C  0.62313949  0.81652175  0.50451026     0.87200
C969        C  0.62249523  0.87527858  0.94493450     0.87200
C970        C  0.62523361  0.87513143  0.56211453     0.87400
O971        O  0.64668452  0.91873637  0.75322541    -0.74900
O972        O  0.65068859  0.83096459  0.75442489    -0.75000
O973        O  0.64949259  0.87543787  0.71011255    -0.75000
O974        O  0.64796236  0.87454229  0.79785512    -0.75100
O975        O  0.59701675  0.87305011  0.79687116    -0.75000
O976        O  0.59865407  0.87090667  0.70914621    -0.75000
O977        O  0.59979305  0.82796869  0.75498965    -0.74900
O978        O  0.59580100  0.91565776  0.75084869    -0.75000
Ni979      Ni  0.65051489  0.87499589  0.75399646     1.25400
Ni980      Ni  0.59599844  0.87173488  0.75297571     1.25400
C981        C  0.62060996  0.93164962  0.75137162     0.87300
C982        C  0.62585661  0.81495316  0.75465971     0.87200
C983        C  0.62433582  0.87333836  0.69516209     0.87200
C984        C  0.62224341  0.87417019  0.81184579     0.87400
O985        O  0.36891483  0.33295393  0.52520233    -0.74900
O986        O  0.37275646  0.42080953  0.52643123    -0.75000
O987        O  0.32690171  0.37816057  0.52277449    -0.75000
O988        O  0.41472293  0.37490353  0.52815453    -0.75100
O989        O  0.41754888  0.38015890  0.97807003    -0.75000
O990        O  0.32993393  0.37725649  0.97222988    -0.75000
O991        O  0.37296158  0.42302821  0.97619684    -0.74900
O992        O  0.37433760  0.33505220  0.97406742    -0.75000
Ni993      Ni  0.37070878  0.37675319  0.52746261     1.25400
Ni994      Ni  0.37382798  0.37908192  0.97333679     1.25400
C995        C  0.37178196  0.31948738  0.99920797     0.87300
C996        C  0.37272771  0.43625262  0.00212367     0.87200
C997        C  0.31372328  0.37719608  0.49647724     0.87200
C998        C  0.43072559  0.37604195  0.50354528     0.87400
O999        O  0.37642247  0.33029432  0.78062848    -0.74900
O1000       O  0.37620917  0.41818063  0.78152179    -0.75000
O1001       O  0.33246604  0.37343783  0.77902225    -0.75000
O1002       O  0.42059355  0.37530443  0.78298453    -0.75100
O1003       O  0.42241106  0.37631892  0.73205066    -0.75000
O1004       O  0.33491778  0.37546033  0.72808098    -0.75000
O1005       O  0.37880218  0.41976007  0.73050867    -0.74900
O1006       O  0.37901311  0.33191047  0.72998589    -0.75000
Ni1007     Ni  0.37637240  0.37420934  0.78288058     1.25400
Ni1008     Ni  0.37881589  0.37589621  0.72839487     1.25400
C1009       C  0.37792650  0.31632260  0.75519090     0.87300
C1010       C  0.37745944  0.43345811  0.75611869     0.87200
C1011       C  0.31914798  0.37444521  0.75279324     0.87200
C1012       C  0.43609076  0.37627188  0.75802012     0.87400
O1013       O  0.36920020  0.67141420  0.97602663    -0.74900
O1014       O  0.36991036  0.58338334  0.97761132    -0.75000
O1015       O  0.32576028  0.62622085  0.97919284    -0.75000
O1016       O  0.41356920  0.62844474  0.97447829    -0.75100
O1017       O  0.41764824  0.62715748  0.52390179    -0.75000
O1018       O  0.33008656  0.62730709  0.52989057    -0.75000
O1019       O  0.37339202  0.58308841  0.52766637    -0.74900
O1020       O  0.37466339  0.67106906  0.52629224    -0.75000
Ni1021     Ni  0.36952005  0.62738093  0.97500301     1.25400
Ni1022     Ni  0.37405446  0.62711685  0.52873252     1.25400
C1023       C  0.37203276  0.68586500  0.50074444     0.87300
C1024       C  0.37223563  0.56885328  0.50232618     0.87200
C1025       C  0.31265473  0.62681227  0.00541271     0.87200
C1026       C  0.42941411  0.62780423  0.99925997     0.87400
O1027       O  0.37947583  0.67024933  0.73225481    -0.74900
O1028       O  0.37720605  0.58215011  0.73032863    -0.75000
O1029       O  0.33448576  0.62728735  0.73131631    -0.75000
O1030       O  0.42222662  0.62566637  0.73105454    -0.75100
O1031       O  0.42251682  0.62417078  0.78204234    -0.75000
O1032       O  0.33460411  0.62299664  0.78199013    -0.75000
O1033       O  0.37836996  0.58002149  0.78134804    -0.74900
O1034       O  0.37785293  0.66784925  0.78310335    -0.75000
Ni1035     Ni  0.37837302  0.62636730  0.72942682     1.25400
Ni1036     Ni  0.37844174  0.62373715  0.78391653     1.25400
C1037       C  0.37780585  0.68369087  0.75799651     0.87300
C1038       C  0.37774214  0.56653801  0.75561286     0.87200
C1039       C  0.31984842  0.62571303  0.75670123     0.87200
C1040       C  0.43695522  0.62444952  0.75646820     0.87400
O1041       O  0.61842235  0.33087354  0.97033940    -0.74900
O1042       O  0.62013276  0.41901576  0.96927613    -0.75000
O1043       O  0.66291683  0.37423484  0.96432975    -0.75000
O1044       O  0.57579898  0.37497610  0.97532560    -0.75100
O1045       O  0.58188355  0.37148351  0.52481150    -0.75000
O1046       O  0.66912564  0.37663869  0.51391529    -0.75000
O1047       O  0.62381652  0.41843195  0.51975146    -0.74900
O1048       O  0.62740058  0.33064840  0.51939106    -0.75000
Ni1049     Ni  0.61909381  0.37491216  0.96802187     1.25400
Ni1050     Ni  0.62577767  0.37439676  0.52125949     1.25400
C1051       C  0.62336005  0.31644336  0.49431742     0.87300
C1052       C  0.62171833  0.43350416  0.49429682     0.87200
C1053       C  0.68047839  0.37446761  0.98787353     0.87200
C1054       C  0.56420326  0.37214213  0.00222824     0.87400
O1055       O  0.62542889  0.33037686  0.72142675    -0.74900
O1056       O  0.62508913  0.41834867  0.72256510    -0.75000
O1057       O  0.66894923  0.37527131  0.71857722    -0.75000
O1058       O  0.58149499  0.37347795  0.72530142    -0.75100
O1059       O  0.58538443  0.37298260  0.77620768    -0.75000
O1060       O  0.67290817  0.37258424  0.76950618    -0.75000
O1061       O  0.62987891  0.41663995  0.77345641    -0.74900
O1062       O  0.62818802  0.32869627  0.77240581    -0.75000
Ni1063     Ni  0.62509958  0.37441103  0.72016310     1.25400
Ni1064     Ni  0.62926172  0.37261835  0.77469781     1.25400
C1065       C  0.62666980  0.31498403  0.74676679     0.87300
C1066       C  0.62739870  0.43198334  0.74820532     0.87200
C1067       C  0.68535573  0.37409505  0.74293007     0.87200
C1068       C  0.56897469  0.37354843  0.75182362     0.87400
O1069       O  0.62260514  0.66653585  0.52592638    -0.74900
O1070       O  0.62047570  0.57899429  0.52104921    -0.75000
O1071       O  0.66547501  0.62221818  0.52376732    -0.75000
O1072       O  0.57759926  0.62310355  0.52295071    -0.75100
O1073       O  0.57678590  0.62701777  0.97285916    -0.75000
O1074       O  0.66467600  0.62596956  0.97270324    -0.75000
O1075       O  0.61938452  0.58260701  0.97029449    -0.74900
O1076       O  0.62182760  0.67020069  0.97534104    -0.75000
Ni1077     Ni  0.62153588  0.62258215  0.52522933     1.25400
Ni1078     Ni  0.62068962  0.62658349  0.97098135     1.25400
C1079       C  0.62190659  0.68256163  0.00168960     0.87300
C1080       C  0.61917893  0.56618350  0.99502252     0.87200
C1081       C  0.68012153  0.62382959  0.49834984     0.87200
C1082       C  0.56333707  0.62554460  0.49730891     0.87400
O1083       O  0.62837172  0.66638131  0.77704763    -0.74900
O1084       O  0.62825185  0.57835980  0.77602368    -0.75000
O1085       O  0.67230799  0.62293401  0.77696349    -0.75000
O1086       O  0.58467608  0.62171006  0.77644667    -0.75100
O1087       O  0.58450542  0.62526915  0.72545076    -0.75000
O1088       O  0.67252352  0.62290691  0.72596822    -0.75000
O1089       O  0.62680898  0.58029970  0.72494837    -0.74900
O1090       O  0.63029840  0.66809433  0.72607264    -0.75000
Ni1091     Ni  0.62842057  0.62230122  0.77841960     1.25400
Ni1092     Ni  0.62854637  0.62423193  0.72378556     1.25400
C1093       C  0.62935294  0.68181172  0.75168545     0.87300
C1094       C  0.62731734  0.56484106  0.75024830     0.87200
C1095       C  0.68698011  0.62250919  0.75160865     0.87200
C1096       C  0.57007169  0.62366009  0.75101589     0.87400
O1097       O  0.07655915  0.35280931  0.98786356    -0.74900
O1098       O  0.16480802  0.35042969  0.49196157    -0.75000
O1099       O  0.11857981  0.35104516  0.53364545    -0.75000
O1100       O  0.12259825  0.35113697  0.94653095    -0.75100
O1101       O  0.12499855  0.40218222  0.94580153    -0.75000
O1102       O  0.12237062  0.40156787  0.53347815    -0.75000
O1103       O  0.16704938  0.40045269  0.99131925    -0.74900
O1104       O  0.07929261  0.40380759  0.48782950    -0.75000
Ni1105     Ni  0.12068270  0.34979596  0.48995057     1.25400
Ni1106     Ni  0.12330139  0.40429320  0.48949429     1.25400
C1107       C  0.06351787  0.37884422  0.48694938     0.87300
C1108       C  0.18023315  0.37450764  0.99236414     0.87200
C1109       C  0.12014536  0.37607649  0.54833989     0.87200
C1110       C  0.12432627  0.37675440  0.93175153     0.87400
O1111       O  0.08327015  0.35290114  0.74279125    -0.74900
O1112       O  0.17099898  0.35120793  0.74249689    -0.75000
O1113       O  0.12750360  0.35278721  0.78611624    -0.75000
O1114       O  0.12581227  0.35113907  0.69861463    -0.75100
O1115       O  0.13116076  0.40157123  0.69608157    -0.75000
O1116       O  0.12722209  0.40379823  0.78372063    -0.75000
O1117       O  0.17278849  0.40218794  0.74209180    -0.74900
O1118       O  0.08528650  0.40331703  0.73691046    -0.75000
Ni1119     Ni  0.12695637  0.35017571  0.74254190     1.25400
Ni1120     Ni  0.12916449  0.40454429  0.73969394     1.25400
C1121       C  0.06957096  0.37828110  0.73861112     0.87300
C1122       C  0.18637861  0.37645275  0.74318954     0.87200
C1123       C  0.12735054  0.37858000  0.79936865     0.87200
C1124       C  0.12756485  0.37596907  0.68264555     0.87400
O1125       O  0.91624488  0.35240306  0.48284138    -0.74900
O1126       O  0.82850644  0.34841065  0.98225849    -0.75000
O1127       O  0.87257656  0.35114154  0.93831244    -0.75000
O1128       O  0.87211228  0.34983787  0.52634507    -0.75100
O1129       O  0.87149096  0.40086999  0.52598746    -0.75000
O1130       O  0.87052966  0.40211064  0.93793522    -0.75000
O1131       O  0.82712281  0.39959023  0.48232210    -0.74900
O1132       O  0.91493744  0.40314025  0.98117135    -0.75000
Ni1133     Ni  0.87243181  0.34873666  0.48236848     1.25400
Ni1134     Ni  0.87097752  0.40333023  0.48193553     1.25400
C1135       C  0.93015310  0.37845806  0.48205117     0.87300
C1136       C  0.81336016  0.37345247  0.48215035     0.87200
C1137       C  0.87181213  0.37690212  0.92362046     0.87200
C1138       C  0.87188777  0.37512150  0.54066892     0.87400
O1139       O  0.91995490  0.35103827  0.73374831    -0.74900
O1140       O  0.83199257  0.35078123  0.73436075    -0.75000
O1141       O  0.87521476  0.34893873  0.68973628    -0.75000
O1142       O  0.87643724  0.35225622  0.77754294    -0.75100
O1143       O  0.87729071  0.40324614  0.77465012    -0.75000
O1144       O  0.87560471  0.39991569  0.68663193    -0.75000
O1145       O  0.83282450  0.40170203  0.73107846    -0.74900
O1146       O  0.92029856  0.40151131  0.72964738    -0.75000
Ni1147     Ni  0.87592643  0.34893400  0.73386189     1.25400
Ni1148     Ni  0.87659476  0.40338154  0.73040073     1.25400
C1149       C  0.93495271  0.37653407  0.73194842     0.87300
C1150       C  0.81787824  0.37631376  0.73318576     0.87200
C1151       C  0.87481033  0.37388408  0.67368602     0.87200
C1152       C  0.87661399  0.37819696  0.79060977     0.87400
C1153       C  0.89674566  0.39575632  0.84166695    -0.02300
C1154       C  0.87509742  0.37883013  0.82462329     0.07300
C1155       C  0.85208282  0.36165171  0.84027781    -0.02500
C1156       C  0.85114108  0.36081735  0.87257634    -0.02500
C1157       C  0.87279213  0.37768385  0.88960481     0.07500
C1158       C  0.89545732  0.39537307  0.87400007    -0.02700
Br1159     Br  0.92594792  0.41783808  0.89693118    -0.01200
Br1160     Br  0.92941884  0.41800740  0.82102426    -0.01300
Br1161     Br  0.81926560  0.33741314  0.89336072    -0.01200
Br1162     Br  0.82062548  0.34039208  0.81749586    -0.01200
C1163       C  0.89502071  0.35802211  0.59075219    -0.02300
C1164       C  0.87228400  0.37447877  0.57469199     0.07300
C1165       C  0.84980948  0.38993140  0.59127338    -0.02500
C1166       C  0.85048239  0.38944343  0.62361088    -0.02500
C1167       C  0.87320093  0.37289048  0.63969311     0.07500
C1168       C  0.89486245  0.35636950  0.62306696    -0.02700
Br1169     Br  0.92493828  0.33191826  0.64429832    -0.01200
Br1170     Br  0.92811014  0.33994964  0.56858082    -0.01300
Br1171     Br  0.81900940  0.41003982  0.64586277    -0.01200
Br1172     Br  0.81726146  0.41082846  0.56980267    -0.01200
C1173       C  0.98669752  0.35063871  0.72669411    -0.02300
C1174       C  0.96954125  0.37719639  0.73279075     0.07300
C1175       C  0.98599936  0.40478399  0.73946408    -0.02500
C1176       C  0.01831065  0.40523765  0.74130808    -0.02500
C1177       C  0.03525641  0.37858800  0.73548721     0.07500
C1178       C  0.01901541  0.35183130  0.72641310    -0.02700
Br1179     Br  0.04036370  0.31715953  0.71010814    -0.01200
Br1180     Br  0.96718235  0.31146940  0.71841530    -0.01300
Br1181     Br  0.03849139  0.44348691  0.75195278    -0.01200
Br1182     Br  0.96544975  0.44289082  0.74731024    -0.01200
C1183       C  0.10411481  0.39486616  0.88105703    -0.02300
C1184       C  0.12520823  0.37708176  0.89793487     0.07300
C1185       C  0.14708280  0.35985432  0.88239513    -0.02500
C1186       C  0.14839902  0.36115468  0.85016180    -0.02500
C1187       C  0.12724684  0.37894882  0.83324178     0.07500
C1188       C  0.10516358  0.39584769  0.84883439    -0.02700
Br1189     Br  0.07507061  0.41910315  0.82626278    -0.01200
Br1190     Br  0.07209241  0.41605455  0.90195812    -0.01300
Br1191     Br  0.18044128  0.33982161  0.82941371    -0.01200
Br1192     Br  0.17578318  0.33482272  0.90507783    -0.01200
C1193       C  0.11400815  0.40154858  0.63171960    -0.02300
C1194       C  0.12460313  0.37549744  0.64836518     0.07300
C1195       C  0.13104917  0.34860057  0.63199396    -0.02500
C1196       C  0.12817495  0.34829340  0.59975129    -0.02500
C1197       C  0.12004382  0.37520463  0.58285046     0.07500
C1198       C  0.11223814  0.40164216  0.59941382    -0.02700
Br1199     Br  0.09715453  0.43824488  0.57888664    -0.01200
Br1200     Br  0.09933705  0.43734391  0.65250116    -0.01300
Br1201     Br  0.13566037  0.30973847  0.57995371    -0.01200
Br1202     Br  0.14461189  0.31148691  0.65283277    -0.01200
C1203       C  0.01253487  0.40069342  0.50204435    -0.02300
C1204       C  0.02939761  0.37985560  0.48463496     0.07300
C1205       C  0.01339929  0.35997394  0.96451073    -0.02500
C1206       C  0.98110860  0.35937295  0.96375266    -0.02500
C1207       C  0.96426641  0.37970968  0.48213612     0.07500
C1208       C  0.98026181  0.40049874  0.50095055    -0.02700
Br1209     Br  0.95820473  0.42785974  0.52689027    -0.01200
Br1210     Br  0.03306082  0.42905046  0.52871090    -0.01300
Br1211     Br  0.96029182  0.33154112  0.93653750    -0.01200
Br1212     Br  0.03556191  0.33470776  0.93662118    -0.01200
C1213       C  0.73406515  0.35411905  0.72109149    -0.02300
C1214       C  0.71919181  0.37477201  0.74026311     0.07300
C1215       C  0.73671306  0.39656150  0.75636698    -0.02500
C1216       C  0.76882940  0.39760022  0.75352727    -0.02500
C1217       C  0.78386517  0.37649777  0.73478625     0.07500
C1218       C  0.76617445  0.35519479  0.71808287    -0.02700
Br1219     Br  0.78548223  0.32868622  0.68928492    -0.01200
Br1220     Br  0.71065689  0.32308730  0.70006556    -0.01300
Br1221     Br  0.79177997  0.42789719  0.77611246    -0.01200
Br1222     Br  0.71670325  0.42580745  0.78182304    -0.01200
C1223       C  0.64868025  0.48331973  0.73116051    -0.02300
C1224       C  0.62721299  0.46597211  0.74865936     0.07300
C1225       C  0.60552344  0.48124270  0.76647483    -0.02500
C1226       C  0.60517283  0.51354877  0.76655262    -0.02500
C1227       C  0.62710026  0.53086372  0.74959379     0.07500
C1228       C  0.64884433  0.51558353  0.73188348    -0.02700
Br1229     Br  0.68000271  0.53872541  0.70969311    -0.01200
Br1230     Br  0.67894044  0.46290779  0.70718551    -0.01300
Br1231     Br  0.57324683  0.53406500  0.78822322    -0.01200
Br1232     Br  0.57528441  0.45801355  0.78980475    -0.01200
C1233       C  0.73121785  0.35463967  0.50530946    -0.02300
C1234       C  0.71441658  0.37188608  0.98439908     0.07300
C1235       C  0.73040162  0.38624755  0.95956806    -0.02500
C1236       C  0.76269048  0.38689903  0.95920639    -0.02500
C1237       C  0.77943797  0.37202272  0.48201890     0.07500
C1238       C  0.76346103  0.35467988  0.50463554    -0.02700
Br1239     Br  0.78567436  0.33160465  0.53550888    -0.01200
Br1240     Br  0.71022792  0.32760438  0.53434598    -0.01300
Br1241     Br  0.78419696  0.40760558  0.92585637    -0.01200
Br1242     Br  0.70905576  0.40386431  0.92484415    -0.01200
C1243       C  0.64214577  0.48496826  0.97720254    -0.02300
C1244       C  0.62109568  0.46759496  0.49430690     0.07300
C1245       C  0.59800460  0.48293851  0.51012813    -0.02500
C1246       C  0.59748128  0.51522511  0.50999716    -0.02500
C1247       C  0.61866870  0.53229145  0.99344729     0.07500
C1248       C  0.64071235  0.51718418  0.97603290    -0.02700
Br1249     Br  0.66975970  0.54041957  0.95112716    -0.01200
Br1250     Br  0.67543983  0.46535874  0.95743564    -0.01300
Br1251     Br  0.56519911  0.53569047  0.53123807    -0.01200
Br1252     Br  0.56637479  0.45993856  0.53128858    -0.01200
C1253       C  0.48902313  0.64159425  0.77564115    -0.02300
C1254       C  0.47110127  0.62331906  0.75591025     0.07300
C1255       C  0.48610015  0.60454975  0.73478187    -0.02500
C1256       C  0.51834984  0.60501214  0.73265554    -0.02500
C1257       C  0.53605079  0.62418821  0.75166194     0.07500
C1258       C  0.52111845  0.64280346  0.77280690    -0.02700
Br1259     Br  0.54438709  0.67201851  0.79651469    -0.01200
Br1260     Br  0.47029730  0.66520951  0.80699680    -0.01300
Br1261     Br  0.53812112  0.57819921  0.70450166    -0.01200
Br1262     Br  0.46282732  0.57582038  0.71057633    -0.01200
C1263       C  0.48157219  0.64839663  0.51488373    -0.02300
C1264       C  0.46342509  0.62789579  0.99789696     0.07300
C1265       C  0.47887259  0.60752838  0.97878844    -0.02500
C1266       C  0.51113156  0.60658045  0.97899254    -0.02500
C1267       C  0.52932401  0.62655920  0.49685512     0.07500
C1268       C  0.51372617  0.64670497  0.51605335    -0.02700
Br1269     Br  0.53617041  0.67289391  0.54359736    -0.01200
Br1270     Br  0.46122542  0.67944442  0.53780999    -0.01300
Br1271     Br  0.53158516  0.57717132  0.95411790    -0.01200
Br1272     Br  0.45608425  0.57967798  0.95321119    -0.01200
C1273       C  0.26794120  0.39396007  0.76959876    -0.02300
C1274       C  0.28509040  0.37465596  0.75081164     0.07300
C1275       C  0.26950497  0.35615637  0.72942542    -0.02500
C1276       C  0.23742548  0.35712852  0.72660602    -0.02500
C1277       C  0.22029179  0.37597568  0.74570578     0.07500
C1278       C  0.23573336  0.39434041  0.76731107    -0.02700
Br1279     Br  0.21289454  0.41940740  0.79482483    -0.01200
Br1280     Br  0.28835302  0.42139797  0.79745124    -0.01300
Br1281     Br  0.21729390  0.33377625  0.69510371    -0.01200
Br1282     Br  0.29159389  0.32820811  0.70449650    -0.01200
C1283       C  0.48709891  0.35809390  0.77871306    -0.02300
C1284       C  0.47026498  0.37732181  0.75853748     0.07300
C1285       C  0.48638118  0.39650763  0.73728627    -0.02500
C1286       C  0.51856474  0.39575416  0.73565861    -0.02500
C1287       C  0.53509043  0.37490455  0.75429470     0.07500
C1288       C  0.51912950  0.35598511  0.77573796    -0.02700
Br1289     Br  0.54064679  0.32512609  0.79942538    -0.01200
Br1290     Br  0.46690123  0.33403282  0.81043879    -0.01300
Br1291     Br  0.53992562  0.42471350  0.70882706    -0.01200
Br1292     Br  0.46479376  0.42544236  0.71124923    -0.01200
C1293       C  0.39887823  0.51603390  0.77389645    -0.02300
C1294       C  0.37784214  0.53244161  0.75539179     0.07300
C1295       C  0.35644565  0.51602538  0.73751801    -0.02500
C1296       C  0.35620973  0.48373031  0.73793283    -0.02500
C1297       C  0.37733452  0.46742986  0.75627075     0.07500
C1298       C  0.39845727  0.48372366  0.77450228    -0.02700
Br1299     Br  0.42779607  0.46189274  0.79956114    -0.01200
Br1300     Br  0.42960607  0.53761000  0.79735629    -0.01300
Br1301     Br  0.32542600  0.46181583  0.71482504    -0.01200
Br1302     Br  0.32598891  0.53740257  0.71376514    -0.01200
C1303       C  0.26204221  0.36063134  0.51784052    -0.02300
C1304       C  0.27945197  0.37570203  0.49436776     0.07300
C1305       C  0.26339282  0.38782980  0.96909864    -0.02500
C1306       C  0.23109301  0.38805995  0.96880236    -0.02500
C1307       C  0.21431846  0.37506395  0.49231329     0.07500
C1308       C  0.22979071  0.36086272  0.51698666    -0.02700
Br1309     Br  0.20670592  0.34331657  0.55084057    -0.01200
Br1310     Br  0.28159088  0.33722526  0.55036689    -0.01300
Br1311     Br  0.20978740  0.40795615  0.93511209    -0.01200
Br1312     Br  0.28460124  0.40542119  0.93385381    -0.01200
C1313       C  0.48232851  0.38348210  0.53001318    -0.02300
C1314       C  0.46486375  0.37265643  0.50490412     0.07300
C1315       C  0.48025229  0.35810323  0.98174249    -0.02500
C1316       C  0.51242487  0.35613018  0.98190331    -0.02500
C1317       C  0.53003600  0.36955136  0.00549782     0.07500
C1318       C  0.51459616  0.38122439  0.53019778    -0.02700
Br1319     Br  0.53662303  0.39314446  0.56662764    -0.01200
Br1320     Br  0.46285205  0.40252088  0.56430737    -0.01300
Br1321     Br  0.53185470  0.33156012  0.95130898    -0.01200
Br1322     Br  0.45775400  0.33790430  0.94940208    -0.01200
C1323       C  0.34498903  0.51817229  0.99506124    -0.02300
C1324       C  0.37236577  0.53494828  0.50271852     0.07300
C1325       C  0.39950661  0.51910243  0.50943253    -0.02500
C1326       C  0.39998165  0.48687186  0.50801249    -0.02500
C1327       C  0.37227579  0.47017403  0.00299692     0.07500
C1328       C  0.34530730  0.48589915  0.99535055    -0.02700
Br1329     Br  0.30833536  0.46316392  0.98672464    -0.01200
Br1330     Br  0.30828490  0.53944395  0.98331606    -0.01300
Br1331     Br  0.43792008  0.46565698  0.51365982    -0.01200
Br1332     Br  0.43608017  0.54156997  0.52046499    -0.01200
C1333       C  0.60911155  0.76481737  0.73240882    -0.02300
C1334       C  0.62718161  0.78094333  0.75377351     0.07300
C1335       C  0.64671934  0.76444220  0.77376723    -0.02500
C1336       C  0.64776995  0.73218212  0.77277042    -0.02500
C1337       C  0.62907010  0.71595336  0.75197090     0.07500
C1338       C  0.60990854  0.73256690  0.73159675    -0.02700
Br1339     Br  0.58361392  0.71147542  0.70299298    -0.01200
Br1340     Br  0.58423520  0.78690502  0.70287328    -0.01300
Br1341     Br  0.67628036  0.71053348  0.79897163    -0.01200
Br1342     Br  0.67145989  0.78576930  0.80346755    -0.01200
C1343       C  0.64770645  0.76453575  0.01509967    -0.02300
C1344       C  0.62274681  0.78195716  0.50471636     0.07300
C1345       C  0.59655393  0.76516359  0.49441693    -0.02500
C1346       C  0.59763712  0.73308969  0.49157971    -0.02500
C1347       C  0.62167401  0.71632472  0.00345867     0.07500
C1348       C  0.64633806  0.73225485  0.01672657    -0.02700
Br1349     Br  0.67838657  0.70975120  0.03738923    -0.01200
Br1350     Br  0.68590796  0.78388449  0.02689323    -0.01300
Br1351     Br  0.56404147  0.71122522  0.47256626    -0.01200
Br1352     Br  0.55814018  0.78443608  0.48459580    -0.01200
C1353       C  0.64089832  0.89619559  0.89381015    -0.02300
C1354       C  0.62195856  0.87552683  0.91081947     0.07300
C1355       C  0.60257813  0.85499576  0.89499272    -0.02500
C1356       C  0.60285436  0.85436558  0.86274027    -0.02500
C1357       C  0.62173085  0.87502462  0.84580681     0.07500
C1358       C  0.64029663  0.89635380  0.86148493    -0.02700
Br1359     Br  0.66350888  0.92731093  0.83879606    -0.01200
Br1360     Br  0.66690925  0.92541330  0.91448072    -0.01300
Br1361     Br  0.57858941  0.82367103  0.84202411    -0.01200
Br1362     Br  0.57647575  0.82633127  0.91710597    -0.01200
C1363       C  0.60589728  0.89424427  0.64455672    -0.02300
C1364       C  0.62495155  0.87406305  0.66122784     0.07300
C1365       C  0.64489767  0.85496608  0.64537270    -0.02500
C1366       C  0.64554212  0.85579179  0.61308108    -0.02500
C1367       C  0.62582422  0.87531885  0.59623240     0.07500
C1368       C  0.60616401  0.89475332  0.61225539    -0.02700
Br1369     Br  0.58061843  0.92361142  0.59030303    -0.01200
Br1370     Br  0.58064509  0.92272579  0.66590884    -0.01300
Br1371     Br  0.67276505  0.82889155  0.59244745    -0.01200
Br1372     Br  0.67032426  0.82626915  0.66777315    -0.01200
C1373       C  0.60399224  0.26500919  0.72898900    -0.02300
C1374       C  0.62609533  0.28086145  0.74652584     0.07300
C1375       C  0.64721865  0.26392744  0.76437140    -0.02500
C1376       C  0.64580753  0.23159795  0.76527033    -0.02500
C1377       C  0.62371643  0.21567841  0.74768306     0.07500
C1378       C  0.60273322  0.23268383  0.72961804    -0.02700
Br1379     Br  0.57241525  0.21207491  0.70477934    -0.01200
Br1380     Br  0.57449449  0.28740700  0.70460106    -0.01300
Br1381     Br  0.67318588  0.20947986  0.79234134    -0.01200
Br1382     Br  0.67944533  0.28486548  0.78640932    -0.01200
C1383       C  0.63664814  0.98218671  0.72752870    -0.02300
C1384       C  0.61918819  0.96554753  0.74961529     0.07300
C1385       C  0.60040258  0.98142334  0.76994334    -0.02500
C1386       C  0.59980253  0.01371034  0.76882443    -0.02500
C1387       C  0.61791261  0.03043302  0.74724061     0.07500
C1388       C  0.63576762  0.01443204  0.72613889    -0.02700
Br1389     Br  0.65764640  0.03645452  0.69389276    -0.01200
Br1390     Br  0.66095635  0.96082828  0.69816458    -0.01300
Br1391     Br  0.57521497  0.03477048  0.79815020    -0.01200
Br1392     Br  0.57679817  0.95909880  0.80074467    -0.01200
C1393       C  0.60873049  0.23296146  0.51802962    -0.02300
C1394       C  0.62587952  0.21746145  0.49605752     0.07300
C1395       C  0.64192815  0.23419434  0.97469353    -0.02500
C1396       C  0.64109505  0.26648668  0.97414893    -0.02500
C1397       C  0.62410057  0.28238496  0.49469005     0.07500
C1398       C  0.60801728  0.26521726  0.51752962    -0.02700
Br1399     Br  0.58388621  0.28553720  0.54780040    -0.01200
Br1400     Br  0.58711591  0.21004987  0.54985496    -0.01300
Br1401     Br  0.66520344  0.28926925  0.94408420    -0.01200
Br1402     Br  0.66593929  0.21357615  0.94457584    -0.01200
C1403       C  0.61342662  0.14805373  0.88777330    -0.02300
C1404       C  0.62874989  0.12513144  0.90487829     0.07300
C1405       C  0.64337562  0.10145142  0.88934130    -0.02500
C1406       C  0.64139106  0.09992247  0.85708471    -0.02500
C1407       C  0.62554859  0.12257242  0.84005528     0.07500
C1408       C  0.61199824  0.14688179  0.85554269    -0.02700
Br1409     Br  0.59258390  0.17951363  0.83249779    -0.01200
Br1410     Br  0.59560652  0.18208366  0.90835769    -0.01300
Br1411     Br  0.65873070  0.06566469  0.83647347    -0.01200
Br1412     Br  0.66531265  0.07043734  0.91225665    -0.01200
C1413       C  0.60125698  0.10329022  0.63847688    -0.02300
C1414       C  0.61750486  0.12580817  0.65490423     0.07300
C1415       C  0.63454441  0.14855590  0.63864352    -0.02500
C1416       C  0.63670784  0.14789573  0.60640854    -0.02500
C1417       C  0.62093719  0.12505222  0.58991698     0.07500
C1418       C  0.60281353  0.10300958  0.60613207    -0.02700
Br1419     Br  0.58147299  0.07113317  0.58430483    -0.01200
Br1420     Br  0.57797724  0.07184786  0.66030905    -0.01300
Br1421     Br  0.66061399  0.17911942  0.58494197    -0.01200
Br1422     Br  0.65340836  0.18190841  0.66049078    -0.01200
C1423       C  0.61043479  0.98318306  0.97690729    -0.02300
C1424       C  0.62462869  0.96771514  0.50140047     0.07300
C1425       C  0.63990720  0.98425115  0.52440063    -0.02500
C1426       C  0.64095388  0.01653669  0.52296851    -0.02500
C1427       C  0.62592664  0.03258655  0.49896962     0.07500
C1428       C  0.61071473  0.01547623  0.97593308    -0.02700
Br1429     Br  0.59124381  0.03687129  0.94211870    -0.01200
Br1430     Br  0.59129920  0.96086429  0.94409695    -0.01300
Br1431     Br  0.66205673  0.03864911  0.55473434    -0.01200
Br1432     Br  0.65773849  0.96269064  0.55903042    -0.01200
C1433       C  0.27006052  0.63855540  0.78306918    -0.02300
C1434       C  0.28554015  0.62728235  0.75703001     0.07300
C1435       C  0.26768262  0.61776779  0.73147451    -0.02500
C1436       C  0.23545893  0.61748226  0.73300261    -0.02500
C1437       C  0.22057324  0.62814017  0.75905728     0.07500
C1438       C  0.23783355  0.63931673  0.78370365    -0.02700
Br1439     Br  0.21696927  0.65562134  0.81859864    -0.01200
Br1440     Br  0.29197478  0.65483172  0.81788817    -0.01300
Br1441     Br  0.21124165  0.60294528  0.69898984    -0.01200
Br1442     Br  0.28599472  0.60519073  0.69360871    -0.01200
C1443       C  0.22952289  0.64171529  0.48750014    -0.02300
C1444       C  0.21463784  0.62479849  0.51112059     0.07300
C1445       C  0.23095811  0.60877841  0.03194953    -0.02500
C1446       C  0.26315877  0.60867391  0.03005353    -0.02500
C1447       C  0.27856518  0.62670380  0.00730058     0.07500
C1448       C  0.26173672  0.64252466  0.48576695    -0.02700
Br1449     Br  0.28082021  0.66739263  0.45369479    -0.01200
Br1450     Br  0.20557085  0.66285442  0.45653532    -0.01300
Br1451     Br  0.28559856  0.58228842  0.05793654    -0.01200
Br1452     Br  0.21035628  0.58512333  0.06393101    -0.01200
C1453       C  0.12252643  0.65975708  0.87025567    -0.02300
C1454       C  0.13480028  0.63498756  0.85429444     0.07300
C1455       C  0.14912319  0.61129866  0.87133417    -0.02500
C1456       C  0.14591136  0.60917029  0.90344560    -0.02500
C1457       C  0.12932439  0.63155677  0.91919165     0.07500
C1458       C  0.11957440  0.65799452  0.90245159    -0.02700
Br1459     Br  0.10187813  0.69255145  0.92253357    -0.01200
Br1460     Br  0.11065512  0.69705054  0.84887197    -0.01300
Br1461     Br  0.16669664  0.57654918  0.92544366    -0.01200
Br1462     Br  0.17661924  0.58388455  0.85119261    -0.01200
C1463       C  0.11714723  0.59130968  0.62252333    -0.02300
C1464       C  0.12646368  0.61710676  0.60432554     0.07300
C1465       C  0.14027348  0.64243145  0.61918360    -0.02500
C1466       C  0.14171196  0.64328764  0.65143943    -0.02500
C1467       C  0.12897719  0.61910316  0.66973934     0.07500
C1468       C  0.11848787  0.59222130  0.65491023    -0.02700
Br1469     Br  0.10638733  0.55559679  0.67801745    -0.01200
Br1470     Br  0.10243029  0.55406897  0.60387797    -0.01300
Br1471     Br  0.16452317  0.67659227  0.66994592    -0.01200
Br1472     Br  0.16004436  0.67553265  0.59589509    -0.01200
C1473       C  0.76870534  0.60071147  0.77358605    -0.02300
C1474       C  0.78610878  0.61929568  0.75299569     0.07300
C1475       C  0.77082072  0.63823072  0.73142107    -0.02500
C1476       C  0.73862361  0.63979133  0.73138888    -0.02500
C1477       C  0.72109263  0.62129608  0.75201527     0.07500
C1478       C  0.73640561  0.60146739  0.77292139    -0.02700
Br1479     Br  0.71342233  0.57428425  0.80020964    -0.01200
Br1480     Br  0.78896345  0.57491377  0.80365363    -0.01300
Br1481     Br  0.71900941  0.66909342  0.70426346    -0.01200
Br1482     Br  0.79390027  0.66097726  0.70052306    -0.01200
C1483       C  0.98633439  0.63984715  0.78441922    -0.02300
C1484       C  0.97109098  0.62648259  0.75928279     0.07300
C1485       C  0.98848018  0.61418030  0.73552156    -0.02500
C1486       C  0.02068794  0.61461269  0.73710639    -0.02500
C1487       C  0.03600070  0.62719927  0.76249429     0.07500
C1488       C  0.01866498  0.64008082  0.78606071    -0.02700
Br1489     Br  0.03916384  0.65701408  0.82115364    -0.01200
Br1490     Br  0.96298118  0.65700517  0.81715169    -0.01300
Br1491     Br  0.04387718  0.59946871  0.70343877    -0.01200
Br1492     Br  0.96817185  0.59833683  0.69974237    -0.01200
C1493       C  0.76140762  0.59664588  0.51171567    -0.02300
C1494       C  0.77926435  0.62283112  0.50215240     0.07300
C1495       C  0.76245247  0.64950258  0.99072758    -0.02500
C1496       C  0.73026314  0.64876672  0.98765091    -0.02500
C1497       C  0.71402764  0.62312617  0.49873902     0.07500
C1498       C  0.72913693  0.59739688  0.51091169    -0.02700
Br1499     Br  0.70526942  0.56235368  0.52550562    -0.01200
Br1500     Br  0.77962645  0.55897561  0.52659273    -0.01300
Br1501     Br  0.70946387  0.68296038  0.96845263    -0.01200
Br1502     Br  0.78329252  0.68746295  0.97920088    -0.01200
C1503       C  0.85151280  0.63395012  0.89559103    -0.02300
C1504       C  0.87329520  0.61776020  0.91322902     0.07300
C1505       C  0.89562324  0.60058832  0.89817096    -0.02500
C1506       C  0.89712407  0.60106409  0.86583133    -0.02500
C1507       C  0.87574868  0.61798601  0.84830784     0.07500
C1508       C  0.85246955  0.63373577  0.86335920    -0.02700
Br1509     Br  0.82048908  0.65347154  0.83985370    -0.01200
Br1510     Br  0.81901535  0.65509301  0.91537668    -0.01300
Br1511     Br  0.92952653  0.57975894  0.84574721    -0.01200
Br1512     Br  0.92492995  0.57714370  0.92168837    -0.01200
C1513       C  0.89463763  0.64518009  0.61312076    -0.02300
C1514       C  0.87231741  0.62704984  0.59813438     0.07300
C1515       C  0.85091316  0.60998361  0.61596482    -0.02500
C1516       C  0.85333953  0.60887827  0.64821565    -0.02500
C1517       C  0.87613316  0.62637194  0.66321549     0.07500
C1518       C  0.89613845  0.64527847  0.64548668    -0.02700
Br1519     Br  0.92659723  0.67048176  0.66536930    -0.01200
Br1520     Br  0.92422593  0.66902771  0.58954651    -0.01300
Br1521     Br  0.82432637  0.58417307  0.67170999    -0.01200
Br1522     Br  0.81643318  0.59033365  0.59639694    -0.01200
C1523       C  0.98037656  0.60374231  0.53124696    -0.02300
C1524       C  0.96485730  0.61971448  0.50751878     0.07300
C1525       C  0.98083272  0.63581914  0.98444252    -0.02500
C1526       C  0.01307060  0.63616296  0.98528219    -0.02500
C1527       C  0.02980276  0.61841826  0.50844736     0.07500
C1528       C  0.01266012  0.60298440  0.53160718    -0.02700
Br1529     Br  0.03329960  0.58167592  0.56461009     0.03600
Br1530     Br  0.95755380  0.58436024  0.56442668    -0.01300
Br1531     Br  0.03540553  0.65689795  0.95282390    -0.01200
Br1532     Br  0.95990876  0.65562270  0.95049582    -0.01200
C1533       C  0.38794638  0.23222663  0.78104411    -0.02300
C1534       C  0.37757340  0.21657634  0.75515494     0.07300
C1535       C  0.36792610  0.23315786  0.72904726    -0.02500
C1536       C  0.36907372  0.26546685  0.72842490    -0.02500
C1537       C  0.37830848  0.28180788  0.75495370     0.07500
C1538       C  0.38791507  0.26451902  0.78131374    -0.02700
Br1539     Br  0.40272397  0.28372804  0.81809102    -0.01200
Br1540     Br  0.40194631  0.20901140  0.81654199    -0.01300
Br1541     Br  0.35829099  0.28585360  0.69019477    -0.01200
Br1542     Br  0.35388013  0.21114102  0.69356720    -0.01200
C1543       C  0.39937547  0.23800719  0.50827814    -0.02300
C1544       C  0.37281721  0.22030596  0.50062336     0.07300
C1545       C  0.34669571  0.23645390  0.99090327    -0.02500
C1546       C  0.34648785  0.26880108  0.98991428    -0.02500
C1547       C  0.37246850  0.28570432  0.99875596     0.07500
C1548       C  0.39832012  0.27024977  0.50844226    -0.02700
Br1549     Br  0.43368502  0.29394958  0.52107599    -0.01200
Br1550     Br  0.43849689  0.21977037  0.01958579    -0.01300
Br1551     Br  0.30894994  0.29036032  0.47928167    -0.01200
Br1552     Br  0.30943507  0.21543490  0.97886000    -0.01200
C1553       C  0.39234394  0.10326084  0.89699358    -0.02300
C1554       C  0.37214517  0.12315105  0.91175576     0.07300
C1555       C  0.35240115  0.14153905  0.89377487    -0.02500
C1556       C  0.35443394  0.14176106  0.86154600    -0.02500
C1557       C  0.37554642  0.12283054  0.84683013     0.07500
C1558       C  0.39405131  0.10313055  0.86472590    -0.02700
Br1559     Br  0.42055018  0.07449430  0.84519759    -0.01200
Br1560     Br  0.41612744  0.07422175  0.92076992    -0.01300
Br1561     Br  0.32916195  0.16958646  0.83785942    -0.01200
Br1562     Br  0.32270880  0.16713915  0.91281287    -0.01200
C1563       C  0.35881661  0.10619474  0.61392302    -0.02300
C1564       C  0.37786668  0.12659385  0.59672309     0.07300
C1565       C  0.39871929  0.14588301  0.61236641    -0.02500
C1566       C  0.39990928  0.14539350  0.64469640    -0.02500
C1567       C  0.38046987  0.12539815  0.66183834     0.07500
C1568       C  0.36023707  0.10548153  0.64621870    -0.02700
Br1569     Br  0.33550580  0.07558802  0.66881191    -0.01200
Br1570     Br  0.33179621  0.07763988  0.59350971    -0.01300
Br1571     Br  0.42724115  0.17352040  0.66525513    -0.01200
Br1572     Br  0.42496087  0.17434054  0.58991882    -0.01200
C1573       C  0.35736425  0.73351186  0.73586660    -0.02300
C1574       C  0.37502359  0.71788330  0.75851929     0.07300
C1575       C  0.38924128  0.73529689  0.78181659    -0.02500
C1576       C  0.38827131  0.76757575  0.78072207    -0.02500
C1577       C  0.37179634  0.78294917  0.75739082     0.07500
C1578       C  0.35527551  0.76575527  0.73579188    -0.02700
Br1579     Br  0.32998041  0.78641040  0.70564802    -0.01200
Br1580     Br  0.33435500  0.71123502  0.70543988    -0.01300
Br1581     Br  0.40869014  0.79088072  0.81218021    -0.01200
Br1582     Br  0.41033238  0.71589534  0.81571132    -0.01200
C1583       C  0.36282924  0.98301007  0.77398820    -0.02300
C1584       C  0.37987650  0.96766036  0.75174065     0.07300
C1585       C  0.39865721  0.98487482  0.73114383    -0.02500
C1586       C  0.39928535  0.01716023  0.73197755    -0.02500
C1587       C  0.38153240  0.03240175  0.75370946     0.07500
C1588       C  0.36394260  0.01517508  0.77515021    -0.02700
Br1589     Br  0.34288663  0.03558688  0.80757096    -0.01200
Br1590     Br  0.33903785  0.96012244  0.80421994    -0.01300
Br1591     Br  0.42343571  0.04045019  0.70231980    -0.01200
Br1592     Br  0.42259777  0.96454972  0.70076815    -0.01200
C1593       C  0.39036156  0.76935630  0.97980827    -0.02300
C1594       C  0.37209811  0.78501321  0.50103612     0.07300
C1595       C  0.35389926  0.76782280  0.52208279    -0.02500
C1596       C  0.35362320  0.73554155  0.52174222    -0.02500
C1597       C  0.37182108  0.71998405  0.50052931     0.07500
C1598       C  0.38991784  0.73702051  0.97968559    -0.02700
Br1599     Br  0.41581813  0.71629948  0.95124131    -0.01200
Br1600     Br  0.41448610  0.79200983  0.94965699    -0.01300
Br1601     Br  0.32703354  0.71292290  0.54974655    -0.01200
Br1602     Br  0.33016886  0.78837708  0.55250595    -0.01200
C1603       C  0.39275068  0.90060918  0.89289791    -0.02300
C1604       C  0.37513423  0.87879471  0.90986188     0.07300
C1605       C  0.35844159  0.85602647  0.89420399    -0.02500
C1606       C  0.35869145  0.85554240  0.86192465    -0.02500
C1607       C  0.37657393  0.87710804  0.84493995     0.07500
C1608       C  0.39384548  0.89948838  0.86059808    -0.02700
Br1609     Br  0.41790953  0.92966975  0.83784699    -0.01200
Br1610     Br  0.41402627  0.93320313  0.91373329    -0.01300
Br1611     Br  0.33524726  0.82436867  0.84112963    -0.01200
Br1612     Br  0.33666060  0.82409731  0.91692915    -0.01200
C1613       C  0.38600876  0.85090240  0.61132809    -0.02300
C1614       C  0.37114275  0.87462795  0.59493159     0.07300
C1615       C  0.35663534  0.89787668  0.61117445    -0.02500
C1616       C  0.35770201  0.89783397  0.64349952    -0.02500
C1617       C  0.37298413  0.87435135  0.65989761     0.07500
C1618       C  0.38683277  0.85069936  0.64366496    -0.02700
Br1619     Br  0.40559098  0.81706431  0.66572032    -0.01200
Br1620     Br  0.40401316  0.81775115  0.58950688    -0.01300
Br1621     Br  0.33953204  0.93099398  0.66521294    -0.01200
Br1622     Br  0.33637859  0.93066727  0.58918052    -0.01200
C1623       C  0.39148457  0.01779635  0.02743149    -0.02300
C1624       C  0.37437464  0.03470648  0.50469248     0.07300
C1625       C  0.35732169  0.01927197  0.48210122    -0.02500
C1626       C  0.35610624  0.98701090  0.48211557    -0.02500
C1627       C  0.37314411  0.96986984  0.50386765     0.07500
C1628       C  0.39121245  0.98551710  0.02677891    -0.02700
Br1629     Br  0.41314898  0.96266299  0.05797194    -0.01200
Br1630     Br  0.41333809  0.03859443  0.05959293    -0.01300
Br1631     Br  0.33178975  0.96657643  0.45145244    -0.01200
Br1632     Br  0.33727596  0.04230494  0.44968202    -0.01200
loop_ 
_geom_bond_atom_site_label_1 
_geom_bond_atom_site_label_2 
_geom_bond_distance 
_geom_bond_site_symmetry_2 
_ccdc_geom_bond_type 
O1         Ni825   1.921       .  S
O1          C827   1.282       .  A
O2           Ni9   1.920       .  S
O2          C828   1.282       .  A
O3           Ni9   1.925       .  S
O3           C13   1.282       .  A
O4         Ni825   1.923       .  S
O4           C14   1.282       .  A
O5         Ni826   1.921       .  S
O5           C14   1.281       .  A
O6          Ni10   1.921       .  S
O6           C13   1.281       .  A
O7         Ni826   1.921       .  S
O7           C12   1.282       .  A
O8          Ni10   1.924       .  S
O8           C11   1.282       .  A
Ni9         O817   1.920       .  S
Ni9         O820   1.924   1_554  S
Ni9         Ni10   2.387       .  S
Ni10        O821   1.921   1_554  S
Ni10        O823   1.924       .  S
C11         O817   1.281       .  A
C11         C811   1.486       .  S
C12         O818   1.282       .  A
C12        C1594   1.486       .  S
C13         C798   1.484       .  S
C14         C788   1.485       .  S
O15         Ni23   1.923       .  S
O15          C25   1.283       .  A
O16         Ni23   1.927       .  S
O16          C26   1.283       .  A
O17         Ni23   1.916       .  S
O17          C27   1.280       .  A
O18         Ni23   1.918       .  S
O18          C28   1.280       .  A
O19         Ni24   1.929       .  S
O19          C28   1.284       .  A
O20         Ni24   1.927       .  S
O20          C27   1.283       .  A
O21         Ni24   1.916       .  S
O21          C26   1.281       .  A
O22         Ni24   1.918       .  S
O22          C25   1.280       .  A
Ni23        Ni24   2.387       .  S
C25         C768   1.485       .  S
C26         C761   1.485       .  S
C27         C791   1.485       .  S
C28         C801   1.485       .  S
O29         Ni37   1.917       .  S
O29          C39   1.281       .  A
O30        Ni853   1.920       .  S
O30         C856   1.280       .  A
O31        Ni853   1.927       .  S
O31          C41   1.283       .  A
O32         Ni37   1.923       .  S
O32          C42   1.282       .  A
O33         Ni38   1.921       .  S
O33          C42   1.281       .  A
O34        Ni854   1.910       .  S
O34          C41   1.279       .  A
O35         Ni38   1.925       .  S
O35          C40   1.282       .  A
O36        Ni854   1.923       .  S
O36         C855   1.282       .  A
Ni37        O846   1.921       .  S
Ni37        O847   1.927   1_554  S
Ni37        Ni38   2.381       .  S
Ni38        O850   1.913   1_554  S
Ni38        O852   1.923       .  S
C39         O852   1.282       .  A
C39         C808   1.482       .  S
C40         O846   1.280       .  A
C40         C728   1.510       .  S
C41         C738   1.487       .  S
C42         C748   1.490       .  S
O43         Ni51   1.922       .  S
O43          C53   1.283       .  A
O44         Ni51   1.924       .  S
O44          C54   1.282       .  A
O45         Ni51   1.909       .  S
O45          C55   1.279       .  A
O46         Ni51   1.910       .  S
O46          C56   1.279       .  A
O47         Ni52   1.928       .  S
O47          C56   1.284       .  A
O48         Ni52   1.929       .  S
O48          C55   1.284       .  A
O49         Ni52   1.918       .  S
O49          C54   1.280       .  A
O50         Ni52   1.918       .  S
O50          C53   1.280       .  A
Ni51        Ni52   2.387       .  S
C53         C771   1.482       .  S
C54         C718   1.479       .  S
C55         C751   1.487       .  S
C56         C741   1.485       .  S
O57        Ni881   1.926       .  S
O57         C883   1.283       .  A
O58         Ni65   1.927       .  S
O58         C884   1.282       .  A
O59         Ni65   1.921       .  S
O59          C69   1.281       .  A
O60        Ni881   1.925       .  S
O60          C70   1.283       .  A
O61        Ni882   1.924       .  S
O61          C70   1.281       .  A
O62         Ni66   1.928       .  S
O62          C69   1.283       .  A
O63        Ni882   1.920       .  S
O63          C68   1.280       .  A
O64         Ni66   1.920       .  S
O64          C67   1.281       .  A
Ni65        O873   1.924       .  S
Ni65        O876   1.924   1_554  S
Ni65        Ni66   2.381       .  S
Ni66        O877   1.922   1_554  S
Ni66        O879   1.921       .  S
C67         O873   1.283       .  A
C67         C708   1.486       .  S
C68         O874   1.281       .  A
C68        C1494   1.512       .  S
C69         C698   1.490       .  S
C70         C688   1.487       .  S
O71         Ni79   1.923       .  S
O71          C81   1.281       .  A
O72         Ni79   1.919       .  S
O72          C82   1.281       .  A
O73         Ni79   1.920       .  S
O73          C83   1.282       .  A
O74         Ni79   1.926       .  S
O74          C84   1.283       .  A
O75         Ni80   1.922       .  S
O75          C84   1.282       .  A
O76         Ni80   1.922       .  S
O76          C83   1.281       .  A
O77         Ni80   1.930       .  S
O77          C82   1.283       .  A
O78         Ni80   1.929       .  S
O78          C81   1.284       .  A
Ni79        Ni80   2.387       .  S
C81         C668   1.488       .  S
C82         C658   1.490       .  S
C83         C691   1.483       .  S
C84         C701   1.488       .  S
O85         Ni93   1.928       .  S
O85          C95   1.283       .  A
O86        Ni909   1.923       .  S
O86         C912   1.282       .  A
O87        Ni909   1.905       .  S
O87          C97   1.277       .  A
O88         Ni93   1.908       .  S
O88          C98   1.278       .  A
O89         Ni94   1.928       .  S
O89          C98   1.283       .  A
O90        Ni910   1.930       .  S
O90          C97   1.284       .  A
O91         Ni94   1.917       .  S
O91          C96   1.280       .  A
O92        Ni910   1.930       .  S
O92         C911   1.283       .  A
Ni93        O902   1.924       .  S
Ni93        O903   1.906   1_554  S
Ni93        Ni94   2.379       .  S
Ni94        O906   1.929   1_554  S
Ni94        O908   1.928       .  S
C95         O908   1.282       .  A
C95         C711   1.491       .  S
C96         O902   1.282       .  A
C96         C628   1.482       .  S
C97         C641   1.499       .  S
C98         C648   1.499       .  S
O99        Ni107   1.926       .  S
O99         C109   1.281       .  A
O100       Ni107   1.919       .  S
O100        C110   1.280       .  A
O101       Ni107   1.923       .  S
O101        C111   1.283       .  A
O102       Ni107   1.920       .  S
O102        C112   1.281       .  A
O103       Ni108   1.912       .  S
O103        C112   1.281       .  A
O104       Ni108   1.911       .  S
O104        C111   1.278       .  A
O105       Ni108   1.921       .  S
O105        C110   1.281       .  A
O106       Ni108   1.930       .  S
O106        C109   1.283       .  A
Ni107      Ni108   2.381       .  S
C109        C671   1.489       .  S
C110        C621   1.475       .  S
C111        C651   1.499       .  S
C112        C638   1.494       .  S
O113       Ni937   1.921       .  S
O113        C939   1.282       .  A
O114       Ni121   1.923       .  S
O114        C940   1.282       .  A
O115       Ni121   1.927   1_554  S
O115        C125   1.283       .  A
O116       Ni937   1.929       .  S
O116        C126   1.283       .  A
O117       Ni938   1.920       .  S
O117        C126   1.281       .  A
O118       Ni122   1.921   1_554  S
O118        C125   1.281       .  A
O119       Ni938   1.921       .  S
O119        C124   1.282       .  A
O120       Ni122   1.923       .  S
O120        C123   1.282       .  A
Ni121       O929   1.922       .  S
Ni121       O932   1.929       .  S
Ni121      Ni122   2.387       .  S
Ni122       O933   1.920       .  S
Ni122       O935   1.922       .  S
C123        O929   1.282       .  A
C123        C611   1.485       .  S
C124        O930   1.282       .  A
C124       C1394   1.484       .  S
C125        C601   1.489       .  S
C126        C588   1.485       .  S
O127       Ni135   1.922       .  S
O127        C137   1.282       .  A
O128       Ni135   1.924       .  S
O128        C138   1.283       .  A
O129       Ni135   1.922       .  S
O129        C139   1.281       .  A
O130       Ni135   1.918       .  S
O130        C140   1.281       .  A
O131       Ni136   1.928       .  S
O131        C140   1.283       .  A
O132       Ni136   1.925       .  S
O132        C139   1.283       .  A
O133       Ni136   1.918       .  S
O133        C138   1.281       .  A
O134       Ni136   1.918       .  S
O134        C137   1.281       .  A
Ni135      Ni136   2.386       .  S
C137        C571   1.486       .  S
C138        C561   1.491       .  S
C139        C591   1.485       .  S
C140        C598   1.485       .  S
O141       Ni149   1.921       .  S
O141        C151   1.281       .  A
O142       Ni965   1.924       .  S
O142        C968   1.281       .  A
O143       Ni965   1.921       .  S
O143        C153   1.282       .  A
O144       Ni149   1.926       .  S
O144        C154   1.283       .  A
O145       Ni150   1.918       .  S
O145        C154   1.281       .  A
O146       Ni966   1.921       .  S
O146        C153   1.282       .  A
O147       Ni150   1.923       .  S
O147        C152   1.281       .  A
O148       Ni966   1.922       .  S
O148        C967   1.282       .  A
Ni149       O958   1.921       .  S
Ni149       O959   1.921   1_554  S
Ni149      Ni150   2.381       .  S
Ni150       O962   1.921   1_554  S
Ni150       O964   1.922       .  S
C151        O964   1.282       .  A
C151        C608   1.482       .  S
C152        O958   1.281       .  A
C152        C528   1.508       .  S
C153        C538   1.490       .  S
C154        C551   1.488       .  S
O155       Ni163   1.920       .  S
O155        C165   1.282       .  A
O156       Ni163   1.923       .  S
O156        C166   1.282       .  A
O157       Ni163   1.917       .  S
O157        C167   1.281       .  A
O158       Ni163   1.920       .  S
O158        C168   1.282       .  A
O159       Ni164   1.918       .  S
O159        C168   1.281       .  A
O160       Ni164   1.918       .  S
O160        C167   1.281       .  A
O161       Ni164   1.925       .  S
O161        C166   1.283       .  A
O162       Ni164   1.919       .  S
O162        C165   1.281       .  A
Ni163      Ni164   2.386       .  S
C165        C568   1.483       .  S
C166        C518   1.493       .  S
C167        C548   1.481       .  S
C168        C541   1.486       .  S
O169       Ni177   1.919       .  S
O169        C995   1.280   1_554  A
O170       Ni177   1.925       .  S
O170        C996   1.281       .  A
O171       Ni177   1.928       .  S
O171        C181   1.284   1_554  A
O172       Ni177   1.926       .  S
O172        C182   1.282       .  A
O173       Ni178   1.923       .  S
O173        C998   1.282       .  A
O174       Ni178   1.919       .  S
O174        C997   1.280       .  A
O175       Ni178   1.930       .  S
O175        C180   1.283       .  A
O176       Ni178   1.924       .  S
O176        C179   1.282       .  A
Ni177      Ni994   2.381   1_554  S
Ni178      Ni993   2.381       .  S
C179        O985   1.280       .  A
C179        C731   1.478       .  S
C180        O986   1.281       .  A
C180        C511   1.484       .  S
C181        O990   1.280       .  A
C181        C488   1.504       .  S
C182        O989   1.282   1_554  A
C182        C498   1.503       .  S
O183       Ni191   1.921       .  S
O183        C193   1.281       .  A
O184       Ni191   1.918       .  S
O184        C194   1.281       .  A
O185       Ni191   1.927       .  S
O185        C195   1.283       .  A
O186       Ni191   1.936       .  S
O186        C196   1.285       .  A
O187       Ni192   1.914       .  S
O187        C196   1.280       .  A
O188       Ni192   1.918       .  S
O188        C195   1.281       .  A
O189       Ni192   1.924       .  S
O189        C194   1.283       .  A
O190       Ni192   1.925       .  S
O190        C193   1.282       .  A
Ni191      Ni192   2.379       .  S
C193        C721   1.510       .  S
C194        C481   1.485       .  S
C195        C458   1.490       .  S
C196        C468   1.497       .  S
O197       Ni205   1.926       .  S
O197       C1023   1.283       .  A
O198       Ni205   1.924       .  S
O198       C1024   1.282       .  A
O199       Ni205   1.922       .  S
O199        C209   1.282       .  A
O200       Ni205   1.926       .  S
O200        C210   1.282       .  A
O201       Ni206   1.918       .  S
O201       C1026   1.281   1_554  A
O202       Ni206   1.922       .  S
O202       C1025   1.282       .  A
O203       Ni206   1.924       .  S
O203        C208   1.282       .  A
O204       Ni206   1.921       .  S
O204        C207   1.282       .  A
Ni205     Ni1022   2.384       .  S
Ni206     Ni1021   2.385   1_554  S
C207       O1013   1.283   1_554  A
C207        C781   1.491       .  S
C208       O1014   1.282   1_554  A
C208        C508   1.481       .  S
C209       O1018   1.282       .  A
C209        C631   1.497       .  S
C210       O1017   1.282       .  A
C210        C448   1.489       .  S
O211       Ni219   1.920       .  S
O211        C221   1.281       .  A
O212       Ni219   1.928       .  S
O212        C222   1.283       .  A
O213       Ni219   1.922       .  S
O213        C223   1.281       .  A
O214       Ni219   1.920       .  S
O214        C224   1.282       .  A
O215       Ni220   1.927       .  S
O215        C224   1.283       .  A
O216       Ni220   1.916       .  S
O216        C223   1.280       .  A
O217       Ni220   1.917       .  S
O217        C222   1.281       .  A
O218       Ni220   1.930       .  S
O218        C221   1.283       .  A
Ni219      Ni220   2.378       .  S
C221        C758   1.498       .  S
C222        C478   1.488       .  S
C223        C618   1.504       .  S
C224        C438   1.497       .  S
O225       Ni233   1.925       .  S
O225       C1051   1.282       .  A
O226       Ni233   1.930       .  S
O226       C1052   1.283       .  A
O227       Ni233   1.924       .  S
O227        C237   1.281       .  A
O228       Ni233   1.923       .  S
O228        C238   1.283       .  A
O229       Ni234   1.927       .  S
O229       C1054   1.282       .  A
O230       Ni234   1.924       .  S
O230       C1053   1.284   1_554  A
O231       Ni234   1.929       .  S
O231        C236   1.283   1_554  A
O232       Ni234   1.921       .  S
O232        C235   1.281   1_554  A
Ni233     Ni1050   2.379       .  S
Ni234     Ni1049   2.379   1_554  S
C235       O1041   1.282       .  A
C235        C581   1.489       .  S
C236       O1042   1.283       .  A
C236        C428   1.491       .  S
C237       O1046   1.284       .  A
C237        C418   1.498       .  S
C238       O1045   1.282       .  A
C238        C501   1.504       .  S
O239       Ni247   1.923       .  S
O239        C249   1.282       .  A
O240       Ni247   1.925       .  S
O240        C250   1.283       .  A
O241       Ni247   1.920       .  S
O241        C251   1.281       .  A
O242       Ni247   1.923       .  S
O242        C252   1.282       .  A
O243       Ni248   1.922       .  S
O243        C252   1.282       .  A
O244       Ni248   1.923       .  S
O244        C251   1.282       .  A
O245       Ni248   1.922       .  S
O245        C250   1.281       .  A
O246       Ni248   1.922       .  S
O246        C249   1.282       .  A
Ni247      Ni248   2.385       .  S
C249        C558   1.489       .  S
C250        C408   1.485       .  S
C251        C398   1.485       .  S
C252        C471   1.492       .  S
O253       Ni261   1.920       .  S
O253       C1079   1.281       .  A
O254       Ni261   1.918       .  S
O254       C1080   1.281   1_554  A
O255       Ni261   1.922       .  S
O255        C265   1.282   1_554  A
O256       Ni261   1.923       .  S
O256        C266   1.282   1_554  A
O257       Ni262   1.921       .  S
O257       C1082   1.282       .  A
O258       Ni262   1.923       .  S
O258       C1081   1.282       .  A
O259       Ni262   1.924       .  S
O259        C264   1.282       .  A
O260       Ni262   1.922       .  S
O260        C263   1.282       .  A
Ni261     Ni1078   2.388   1_554  S
Ni262     Ni1077   2.388       .  S
C263       O1069   1.281       .  A
C263        C531   1.481       .  S
C264       O1070   1.281       .  A
C264        C431   1.483       .  S
C265       O1074   1.282       .  A
C265        C681   1.485       .  S
C266       O1073   1.282       .  A
C266        C451   1.488       .  S
O267       Ni275   1.928       .  S
O267        C277   1.283       .  A
O268       Ni275   1.926       .  S
O268        C278   1.283       .  A
O269       Ni275   1.919       .  S
O269        C279   1.281       .  A
O270       Ni275   1.914       .  S
O270        C280   1.280       .  A
O271       Ni276   1.929       .  S
O271        C280   1.283       .  A
O272       Ni276   1.928       .  S
O272        C279   1.284       .  A
O273       Ni276   1.920       .  S
O273        C278   1.281       .  A
O274       Ni276   1.922       .  S
O274        C277   1.282       .  A
Ni275      Ni276   2.383       .  S
C277        C521   1.493       .  S
C278        C411   1.485       .  S
C279        C661   1.494       .  S
C280        C441   1.491       .  S
O281      Ni1105   1.924       .  S
O281       C1107   1.283       .  A
O282       Ni289   1.933       .  S
O282       C1108   1.284       .  A
O283       Ni289   1.911   1_554  S
O283        C293   1.281       .  A
O284      Ni1105   1.913       .  S
O284        C294   1.280       .  A
O285      Ni1106   1.912       .  S
O285        C294   1.280       .  A
O286       Ni290   1.923   1_554  S
O286        C293   1.279       .  A
O287      Ni1106   1.917       .  S
O287        C292   1.280       .  A
O288       Ni290   1.924       .  S
O288        C291   1.281       .  A
Ni289      O1097   1.925       .  S
Ni289      O1100   1.913       .  S
Ni289      Ni290   2.381       .  S
Ni290      O1101   1.915       .  S
Ni290      O1103   1.916       .  S
C291       O1097   1.283       .  A
C291        C388   1.496       .  S
C292       O1098   1.284       .  A
C292       C1307   1.485       .  S
C293        C381   1.505       .  S
C294        C368   1.474       .  S
O295       Ni303   1.912       .  S
O295        C305   1.278       .  A
O296       Ni303   1.923       .  S
O296        C306   1.283       .  A
O297       Ni303   1.904       .  S
O297        C307   1.278       .  A
O298       Ni303   1.916       .  S
O298        C308   1.277       .  A
O299       Ni304   1.915       .  S
O299        C308   1.283       .  A
O300       Ni304   1.923       .  S
O300        C307   1.283       .  A
O301       Ni304   1.916       .  S
O301        C306   1.280       .  A
O302       Ni304   1.922       .  S
O302        C305   1.282       .  A
Ni303      Ni304   2.377       .  S
C305        C361   1.503       .  S
C306        C461   1.485       .  S
C307        C371   1.477       .  S
C308        C378   1.501       .  S
O309       Ni317   1.919       .  S
O309        C319   1.281       .  A
O310      Ni1133   1.921       .  S
O310       C1136   1.281       .  A
O311      Ni1133   1.923       .  S
O311        C321   1.282       .  A
O312       Ni317   1.923   1_554  S
O312        C322   1.282       .  A
O313       Ni318   1.922   1_554  S
O313        C322   1.282       .  A
O314      Ni1134   1.918       .  S
O314        C321   1.281       .  A
O315       Ni318   1.924       .  S
O315        C320   1.283       .  A
O316      Ni1134   1.923       .  S
O316       C1135   1.282       .  A
Ni317      O1126   1.921       .  S
Ni317      O1127   1.926       .  S
Ni317      Ni318   2.386       .  S
Ni318      O1130   1.918       .  S
Ni318      O1132   1.923       .  S
C319       O1132   1.283       .  A
C319        C391   1.492       .  S
C320       O1126   1.281       .  A
C320        C421   1.484       .  S
C321        C341   1.484       .  S
C322        C348   1.485       .  S
O323       Ni331   1.923       .  S
O323        C333   1.282       .  A
O324       Ni331   1.924       .  S
O324        C334   1.283       .  A
O325       Ni331   1.926       .  S
O325        C335   1.282       .  A
O326       Ni331   1.915       .  S
O326        C336   1.280       .  A
O327       Ni332   1.929       .  S
O327        C336   1.283       .  A
O328       Ni332   1.920       .  S
O328        C335   1.281       .  A
O329       Ni332   1.915       .  S
O329        C334   1.280       .  A
O330       Ni332   1.914       .  S
O330        C333   1.278       .  A
Ni331      Ni332   2.380       .  S
C333        C358   1.511       .  S
C334        C401   1.489       .  S
C335        C351   1.487       .  S
C336        C338   1.487       .  S
C337        C338   1.413       .  A
C337        C342   1.411       .  A
C337       Br344   1.928       .  S
C338        C339   1.414       .  A
C339        C340   1.410       .  A
C339       Br346   1.933       .  S
C340        C341   1.411       .  A
C340       Br345   1.932       .  S
C341        C342   1.413       .  A
C342       Br343   1.934       .  S
C347        C348   1.412       .  A
C347        C352   1.411       .  A
C347       Br354   1.932       .  S
C348        C349   1.412       .  A
C349        C350   1.411       .  A
C349       Br356   1.932       .  S
C350        C351   1.413       .  A
C350       Br355   1.933       .  S
C351        C352   1.413       .  A
C352       Br353   1.930       .  S
C357        C358   1.423       .  A
C357        C362   1.412   1_655  A
C357       Br364   1.941       .  S
C358        C359   1.428       .  A
C359        C360   1.414   1_655  A
C359       Br366   1.942       .  S
C360        C361   1.418       .  A
C360       Br365   1.941       .  S
C361        C362   1.420       .  A
C362       Br363   1.943       .  S
C367        C368   1.410       .  A
C367        C372   1.406       .  A
C367       Br374   1.934       .  S
C368        C369   1.411       .  A
C369        C370   1.407       .  A
C369       Br376   1.933       .  S
C370        C371   1.413       .  A
C370       Br375   1.934       .  S
C371        C372   1.411       .  A
C372       Br373   1.928       .  S
C377        C378   1.419       .  A
C377        C382   1.411       .  A
C377       Br384   1.944       .  S
C378        C379   1.422       .  A
C379        C380   1.413       .  A
C379       Br386   1.941       .  S
C380        C381   1.422       .  A
C380       Br385   1.943       .  S
C381        C382   1.422       .  A
C382       Br383   1.937       .  S
C387        C388   1.417   1_554  A
C387        C392   1.412   1_455  A
C387       Br394   1.928       .  S
C388       C1205   1.415       .  A
C389        C390   1.413   1_455  A
C389       C1204   1.416       .  A
C389       Br396   1.934       .  S
C390       C1207   1.415       .  A
C390       Br395   1.935       .  S
C391        C392   1.414   1_556  A
C391       C1206   1.416       .  A
C392       Br393   1.936       .  S
C397        C398   1.413       .  A
C397        C402   1.411       .  A
C397       Br404   1.932       .  S
C398        C399   1.411       .  A
C399        C400   1.410       .  A
C399       Br406   1.933       .  S
C400        C401   1.417       .  A
C400       Br405   1.934       .  S
C401        C402   1.414       .  A
C402       Br403   1.933       .  S
C407        C408   1.412       .  A
C407        C412   1.411       .  A
C407       Br414   1.931       .  S
C408        C409   1.413       .  A
C409        C410   1.412       .  A
C409       Br416   1.931       .  S
C410        C411   1.412       .  A
C410       Br415   1.932       .  S
C411        C412   1.413       .  A
C412       Br413   1.932       .  S
C417        C422   1.411       .  A
C417       C1234   1.418   1_554  A
C417       Br424   1.935       .  S
C418        C419   1.419       .  A
C418       C1233   1.418       .  A
C419        C420   1.412       .  A
C419       Br426   1.930       .  S
C420       C1237   1.410       .  A
C420       Br425   1.934       .  S
C421        C422   1.410   1_556  A
C421       C1236   1.409       .  A
C422       Br423   1.933       .  S
C427        C432   1.409       .  A
C427       C1244   1.410       .  A
C427       Br434   1.919       .  S
C428        C429   1.412   1_556  A
C428       C1243   1.411       .  A
C429        C430   1.411       .  A
C429       Br436   1.924       .  S
C430       C1247   1.412   1_554  A
C430       Br435   1.933       .  S
C431        C432   1.411       .  A
C431       C1246   1.412       .  A
C432       Br433   1.933       .  S
C437        C438   1.416       .  A
C437        C442   1.410       .  A
C437       Br444   1.928       .  S
C438        C439   1.418       .  A
C439        C440   1.413       .  A
C439       Br446   1.935       .  S
C440        C441   1.413       .  A
C440       Br445   1.933       .  S
C441        C442   1.414       .  A
C442       Br443   1.936       .  S
C447        C452   1.410       .  A
C447       C1264   1.414   1_554  A
C447       Br454   1.934       .  S
C448        C449   1.414       .  A
C448       C1263   1.413       .  A
C449        C450   1.412       .  A
C449       Br456   1.933       .  S
C450       C1267   1.415       .  A
C450       Br455   1.933       .  S
C451        C452   1.413   1_556  A
C451       C1266   1.414       .  A
C452       Br453   1.933       .  S
C457        C458   1.415       .  A
C457        C462   1.412       .  A
C457       Br464   1.933       .  S
C458        C459   1.414       .  A
C459        C460   1.408       .  A
C459       Br466   1.927       .  S
C460        C461   1.410       .  A
C460       Br465   1.932       .  S
C461        C462   1.415       .  A
C462       Br463   1.934       .  S
C467        C468   1.416       .  A
C467        C472   1.413       .  A
C467       Br474   1.927       .  S
C468        C469   1.417       .  A
C469        C470   1.412       .  A
C469       Br476   1.935       .  S
C470        C471   1.414       .  A
C470       Br475   1.935       .  S
C471        C472   1.414       .  A
C472       Br473   1.935       .  S
C477        C478   1.414       .  A
C477        C482   1.411       .  A
C477       Br484   1.933       .  S
C478        C479   1.413       .  A
C479        C480   1.411       .  A
C479       Br486   1.927       .  S
C480        C481   1.412       .  A
C480       Br485   1.933       .  S
C481        C482   1.412       .  A
C482       Br483   1.932       .  S
C487        C488   1.422   1_554  A
C487        C492   1.412       .  A
C487       Br494   1.936       .  S
C488       C1305   1.424       .  A
C489        C490   1.413       .  A
C489       C1304   1.423       .  A
C489       Br496   1.936       .  S
C490       C1307   1.409       .  A
C490       Br495   1.934       .  S
C491       C1108   1.487       .  S
C491        C492   1.408   1_556  A
C491       C1306   1.410       .  A
C492       Br493   1.929       .  S
C497        C498   1.420       .  A
C497        C502   1.416       .  A
C497       Br504   1.935       .  S
C498       C1315   1.419   1_554  A
C499        C500   1.412       .  A
C499       C1314   1.420       .  A
C499       Br506   1.939       .  S
C500        C501   1.416       .  A
C500       Br505   1.938       .  S
C501       C1318   1.419       .  A
C502       C1317   1.419       .  A
C502       Br503   1.935       .  S
C507        C512   1.411       .  A
C507       C1324   1.409       .  A
C507       Br514   1.930       .  S
C508        C509   1.411       .  A
C508       C1323   1.409   1_554  A
C509        C510   1.411       .  A
C509       Br516   1.930       .  S
C510       C1327   1.410       .  A
C510       Br515   1.926       .  S
C511        C512   1.410       .  A
C511       C1326   1.410       .  A
C512       Br513   1.925       .  S
C517        C518   1.415       .  A
C517        C522   1.412       .  A
C517       Br524   1.934       .  S
C518        C519   1.415       .  A
C519        C520   1.413       .  A
C519       Br526   1.932       .  S
C520        C521   1.413       .  A
C520       Br525   1.932       .  S
C521        C522   1.415       .  A
C522       Br523   1.934       .  S
C527        C532   1.412       .  A
C527       C1344   1.427       .  A
C527       Br534   1.933       .  S
C528        C529   1.427   1_554  A
C528       C1343   1.428       .  A
C529        C530   1.410       .  A
C529       Br536   1.934       .  S
C530       C1347   1.405   1_556  A
C530       Br535   1.935       .  S
C531        C532   1.405       .  A
C531       C1346   1.405       .  A
C532       Br533   1.934       .  S
C537        C538   1.415       .  A
C537        C542   1.411       .  A
C537       Br544   1.934       .  S
C538        C539   1.415       .  A
C539        C540   1.409       .  A
C539       Br546   1.927       .  S
C540        C541   1.412       .  A
C540       Br545   1.935       .  S
C541        C542   1.413       .  A
C542       Br543   1.933       .  S
C547        C548   1.411       .  A
C547        C552   1.410       .  A
C547       Br554   1.933       .  S
C548        C549   1.409       .  A
C549        C550   1.409       .  A
C549       Br556   1.935       .  S
C550        C551   1.414       .  A
C550       Br555   1.924       .  S
C551        C552   1.415       .  A
C552       Br553   1.933       .  S
C557        C558   1.413       .  A
C557        C562   1.411       .  A
C557       Br564   1.933       .  S
C558        C559   1.413       .  A
C559        C560   1.411       .  A
C559       Br566   1.933       .  S
C560        C561   1.415       .  A
C560       Br565   1.934       .  S
C561        C562   1.416       .  A
C562       Br563   1.935       .  S
C567        C568   1.412       .  A
C567        C572   1.410   1_565  A
C567       Br574   1.933       .  S
C568        C569   1.412       .  A
C569        C570   1.410   1_565  A
C569       Br576   1.933       .  S
C570        C571   1.414       .  A
C570       Br575   1.933       .  S
C571        C572   1.413       .  A
C572       Br573   1.933       .  S
C577        C578   1.412   1_554  A
C577        C582   1.411       .  A
C577       Br584   1.933       .  S
C578        C940   1.486       .  S
C578       C1395   1.412       .  A
C579        C580   1.412       .  A
C579       C1394   1.412       .  A
C579       Br586   1.933       .  S
C580       C1397   1.415       .  A
C580       Br585   1.933       .  S
C581        C582   1.415   1_556  A
C581       C1396   1.415       .  A
C582       Br583   1.933       .  S
C587        C588   1.412       .  A
C587        C592   1.409       .  A
C587       Br594   1.931       .  S
C588        C589   1.413       .  A
C589        C590   1.413       .  A
C589       Br596   1.931       .  S
C590        C591   1.413       .  A
C590       Br595   1.930       .  S
C591        C592   1.411       .  A
C592       Br593   1.932       .  S
C597        C598   1.412       .  A
C597        C602   1.413       .  A
C597       Br604   1.932       .  S
C598        C599   1.411       .  A
C599        C600   1.410       .  A
C599       Br606   1.932       .  S
C600        C601   1.413       .  A
C600       Br605   1.932       .  S
C601        C602   1.415       .  A
C602       Br603   1.932       .  S
C607        C612   1.410   1_565  A
C607       C1424   1.411       .  A
C607       Br614   1.932       .  S
C608        C609   1.411       .  A
C608       C1423   1.411   1_554  A
C609        C610   1.411   1_565  A
C609       Br616   1.932       .  S
C610        C611   1.413   1_554  A
C610       Br615   1.932       .  S
C611       C1428   1.413       .  A
C612       C1427   1.413       .  A
C612       Br613   1.932       .  S
C617        C618   1.427       .  A
C617        C622   1.410       .  A
C617       Br624   1.938       .  S
C618        C619   1.426       .  A
C619        C620   1.411       .  A
C619       Br626   1.934       .  S
C620        C621   1.404       .  A
C620       Br625   1.934       .  S
C621        C622   1.404       .  A
C622       Br623   1.934       .  S
C627        C628   1.410   1_556  A
C627        C632   1.411       .  A
C627       Br634   1.934       .  S
C628       C1445   1.409       .  A
C629        C630   1.412       .  A
C629       C1444   1.408       .  A
C629       Br636   1.933       .  S
C630        C631   1.420       .  A
C630       Br635   1.933       .  S
C631       C1448   1.420       .  A
C632       C1447   1.418   1_556  A
C632       Br633   1.933       .  S
C637        C638   1.414       .  A
C637        C642   1.411       .  A
C637       Br644   1.937       .  S
C638        C639   1.414       .  A
C639        C640   1.409       .  A
C639       Br646   1.939       .  S
C640        C641   1.419       .  A
C640       Br645   1.937       .  S
C641        C642   1.424       .  A
C642       Br643   1.937       .  S
C647        C648   1.418       .  A
C647        C652   1.414       .  A
C647       Br654   1.936       .  S
C648        C649   1.421       .  A
C649        C650   1.409       .  A
C649       Br656   1.941       .  S
C650        C651   1.416       .  A
C650       Br655   1.941       .  S
C651        C652   1.422       .  A
C652       Br653   1.939       .  S
C657        C658   1.412       .  A
C657        C662   1.413       .  A
C657       Br664   1.933       .  S
C658        C659   1.413       .  A
C659        C660   1.411       .  A
C659       Br666   1.933       .  S
C660        C661   1.414       .  A
C660       Br665   1.932       .  S
C661        C662   1.418       .  A
C662       Br663   1.934       .  S
C667        C668   1.415       .  A
C667        C672   1.415   1_655  A
C667       Br674   1.931       .  S
C668        C669   1.410       .  A
C669        C670   1.410   1_655  A
C669       Br676   1.931       .  S
C670        C671   1.411       .  A
C670       Br675   1.924       .  S
C671        C672   1.412       .  A
C672       Br673   1.929       .  S
C677        C678   1.429       .  A
C677        C682   1.412       .  A
C677       Br684   1.937       .  S
C678        C884   1.513       .  S
C678       C1495   1.429   1_554  A
C679        C680   1.413       .  A
C679       C1494   1.429       .  A
C679       Br686   1.936       .  S
C680       C1497   1.406       .  A
C680       Br685   1.935       .  S
C681        C682   1.406   1_556  A
C681       C1496   1.406       .  A
C682       Br683   1.935       .  S
C687        C688   1.412       .  A
C687        C692   1.408       .  A
C687       Br694   1.924       .  S
C688        C689   1.413       .  A
C689        C690   1.413       .  A
C689       Br696   1.931       .  S
C690        C691   1.413       .  A
C690       Br695   1.931       .  S
C691        C692   1.410       .  A
C692       Br693   1.934       .  S
C697        C698   1.415       .  A
C697        C702   1.413       .  A
C697       Br704   1.932       .  S
C698        C699   1.411       .  A
C699        C700   1.410       .  A
C699       Br706   1.929       .  S
C700        C701   1.414       .  A
C700       Br705   1.933       .  S
C701        C702   1.412       .  A
C702       Br703   1.931       .  S
C707        C708   1.413       .  A
C707        C712   1.413   1_655  A
C707       Br714   1.933       .  S
C708       C1525   1.411   1_554  A
C709        C710   1.411   1_655  A
C709       C1524   1.411       .  A
C709       Br716   1.933       .  S
C710       C1527   1.412       .  A
C710       Br715   1.923       .  S
C711        C712   1.413       .  A
C711       C1526   1.412   1_554  A
C712       Br713   1.926       .  S
C717        C718   1.404       .  A
C717        C722   1.411       .  A
C717       Br724   1.935       .  S
C718        C719   1.404       .  A
C719        C720   1.412       .  A
C719       Br726   1.934       .  S
C720        C721   1.428       .  A
C720       Br725   1.933       .  S
C721        C722   1.428       .  A
C722       Br723   1.935       .  S
C727        C728   1.428       .  A
C727        C732   1.410       .  A
C727      Br1550   1.935       .  S
C728       C1545   1.430   1_554  A
C729        C730   1.413       .  A
C729       C1544   1.430       .  A
C729       Br736   1.936       .  S
C730        C731   1.403       .  A
C730      Br1551   1.935       .  S
C731       C1548   1.403       .  A
C732       C1547   1.403   1_554  A
C732       Br733   1.933       .  S
Br734      C1543   1.935       .  S
Br735      C1546   1.935       .  S
C737        C738   1.416       .  A
C737        C742   1.410       .  A
C737       Br744   1.935       .  S
C738        C739   1.412       .  A
C739        C740   1.409       .  A
C739       Br746   1.930       .  S
C740        C741   1.415       .  A
C740       Br745   1.935       .  S
C741        C742   1.412       .  A
C742       Br743   1.933       .  S
C747        C748   1.414       .  A
C747        C752   1.410       .  A
C747       Br754   1.934       .  S
C748        C749   1.415       .  A
C749        C750   1.411       .  A
C749       Br756   1.929       .  S
C750        C751   1.412       .  A
C750       Br755   1.934       .  S
C751        C752   1.415       .  A
C752       Br753   1.936       .  S
C757        C758   1.421       .  A
C757        C762   1.413       .  A
C757       Br764   1.935       .  S
C758        C759   1.417       .  A
C759        C760   1.411       .  A
C759       Br766   1.927       .  S
C760        C761   1.410       .  A
C760       Br765   1.935       .  S
C761        C762   1.409       .  A
C762       Br763   1.933       .  S
C767        C768   1.413       .  A
C767        C772   1.408   1_565  A
C767       Br774   1.932       .  S
C768        C769   1.414       .  A
C769        C770   1.412   1_565  A
C769       Br776   1.932       .  S
C770        C771   1.413       .  A
C770       Br775   1.933       .  S
C771        C772   1.409       .  A
C772       Br773   1.933       .  S
C777        C782   1.412       .  A
C777       C1594   1.413       .  A
C777       Br784   1.933       .  S
C778        C828   1.487       .  S
C778        C779   1.412       .  A
C778       C1593   1.413   1_554  A
C779        C780   1.411       .  A
C779       Br786   1.934       .  S
C780        C781   1.415       .  A
C780       Br785   1.933       .  S
C781       C1598   1.416   1_554  A
C782       C1597   1.415       .  A
C782       Br783   1.933       .  S
C787        C788   1.413       .  A
C787        C792   1.412       .  A
C787       Br794   1.932       .  S
C788        C789   1.412       .  A
C789        C790   1.409       .  A
C789       Br796   1.933       .  S
C790        C791   1.413       .  A
C790       Br795   1.933       .  S
C791        C792   1.413       .  A
C792       Br793   1.932       .  S
C797        C798   1.412       .  A
C797        C802   1.411       .  A
C797       Br804   1.931       .  S
C798        C799   1.412       .  A
C799        C800   1.411       .  A
C799       Br806   1.931       .  S
C800        C801   1.413       .  A
C800       Br805   1.932       .  S
C801        C802   1.412       .  A
C802       Br803   1.931       .  S
C807        C812   1.410   1_545  A
C807       C1624   1.410       .  A
C807       Br814   1.932       .  S
C808        C809   1.412   1_554  A
C808       C1623   1.410       .  A
C809        C810   1.409   1_545  A
C809       Br816   1.933       .  S
C810        C811   1.413   1_556  A
C810       Br815   1.932       .  S
C811       C1628   1.414       .  A
C812       C1627   1.415       .  A
C812       Br813   1.932       .  S
O818       Ni825   1.922       .  S
O819       Ni825   1.925       .  S
O819        C829   1.282       .  A
O820        C830   1.283       .  A
O821        C830   1.281       .  A
O822       Ni826   1.922       .  S
O822        C829   1.282       .  A
O823        C828   1.282       .  A
O824       Ni826   1.922       .  S
O824        C827   1.282       .  A
Ni825      Ni826   2.387       .  S
C827       C1627   1.486       .  S
C829       C1614   1.485       .  S
C830       C1604   1.486       .  S
O831       Ni839   1.921       .  S
O831        C841   1.282       .  A
O832       Ni839   1.925       .  S
O832        C842   1.282       .  A
O833       Ni839   1.917       .  S
O833        C843   1.281       .  A
O834       Ni839   1.918       .  S
O834        C844   1.281       .  A
O835       Ni840   1.929       .  S
O835        C844   1.284       .  A
O836       Ni840   1.927       .  S
O836        C843   1.283       .  A
O837       Ni840   1.918       .  S
O837        C842   1.281       .  A
O838       Ni840   1.919       .  S
O838        C841   1.281       .  A
Ni839      Ni840   2.387       .  S
C841       C1584   1.484       .  S
C842       C1577   1.485       .  S
C843       C1607   1.485       .  S
C844       C1617   1.485       .  S
O845       Ni853   1.916       .  S
O845        C855   1.281       .  A
O847        C857   1.283       .  A
O848       Ni853   1.924       .  S
O848        C858   1.283       .  A
O849       Ni854   1.919       .  S
O849        C858   1.281       .  A
O850        C857   1.280       .  A
O851       Ni854   1.925       .  S
O851        C856   1.282       .  A
Ni853      Ni854   2.380       .  S
C855       C1624   1.481       .  S
C856       C1544   1.511       .  S
C857       C1554   1.488       .  S
C858       C1564   1.491       .  S
O859       Ni867   1.920       .  S
O859        C869   1.282       .  A
O860       Ni867   1.922       .  S
O860        C870   1.282       .  A
O861       Ni867   1.909       .  S
O861        C871   1.279       .  A
O862       Ni867   1.910       .  S
O862        C872   1.279       .  A
O863       Ni868   1.928       .  S
O863        C872   1.284       .  A
O864       Ni868   1.929       .  S
O864        C871   1.284       .  A
O865       Ni868   1.917       .  S
O865        C870   1.280       .  A
O866       Ni868   1.916       .  S
O866        C869   1.280       .  A
Ni867      Ni868   2.387       .  S
C869       C1587   1.480       .  S
C870       C1534   1.477       .  S
C871       C1567   1.488       .  S
C872       C1557   1.485       .  S
O874       Ni881   1.926       .  S
O875       Ni881   1.922       .  S
O875        C885   1.281       .  A
O876        C886   1.283       .  A
O877        C886   1.281       .  A
O878       Ni882   1.929       .  S
O878        C885   1.284       .  A
O879        C884   1.280       .  A
O880       Ni882   1.920       .  S
O880        C883   1.281       .  A
Ni881      Ni882   2.380       .  S
C883       C1524   1.487       .  S
C885       C1514   1.492       .  S
C886       C1504   1.487       .  S
O887       Ni895   1.924       .  S
O887        C897   1.281       .  A
O888       Ni895   1.920       .  S
O888        C898   1.282       .  A
O889       Ni895   1.920       .  S
O889        C899   1.282       .  A
O890       Ni895   1.927       .  S
O890        C900   1.283       .  A
O891       Ni896   1.923       .  S
O891        C900   1.282       .  A
O892       Ni896   1.921       .  S
O892        C899   1.281       .  A
O893       Ni896   1.929       .  S
O893        C898   1.283       .  A
O894       Ni896   1.929       .  S
O894        C897   1.284       .  A
Ni895      Ni896   2.386       .  S
C897       C1484   1.488       .  S
C898       C1474   1.490       .  S
C899       C1507   1.483       .  S
C900       C1517   1.490       .  S
O901       Ni909   1.927       .  S
O901        C911   1.282       .  A
O903        C913   1.277       .  A
O904       Ni909   1.910       .  S
O904        C914   1.279       .  A
O905       Ni910   1.931       .  S
O905        C914   1.283       .  A
O906        C913   1.284       .  A
O907       Ni910   1.921       .  S
O907        C912   1.281       .  A
Ni909      Ni910   2.378       .  S
C911       C1527   1.491       .  S
C912       C1444   1.482       .  S
C913       C1457   1.497       .  S
C914       C1464   1.502       .  S
O915       Ni923   1.927       .  S
O915        C925   1.282       .  A
O916       Ni923   1.920       .  S
O916        C926   1.281       .  A
O917       Ni923   1.924       .  S
O917        C927   1.284       .  A
O918       Ni923   1.920       .  S
O918        C928   1.281       .  A
O919       Ni924   1.915       .  S
O919        C928   1.281       .  A
O920       Ni924   1.916       .  S
O920        C927   1.279       .  A
O921       Ni924   1.921       .  S
O921        C926   1.281       .  A
O922       Ni924   1.931       .  S
O922        C925   1.284       .  A
Ni923      Ni924   2.381       .  S
C925       C1487   1.489       .  S
C926       C1437   1.476       .  S
C927       C1467   1.503       .  S
C928       C1454   1.494       .  S
O930       Ni937   1.922       .  S
O931       Ni937   1.929       .  S
O931        C941   1.284       .  A
O932        C942   1.283       .  A
O933        C942   1.281       .  A
O934       Ni938   1.922       .  S
O934        C941   1.281       .  A
O935        C940   1.282       .  A
O936       Ni938   1.922       .  S
O936        C939   1.282       .  A
Ni937      Ni938   2.387       .  S
C939       C1427   1.485       .  S
C941       C1417   1.490       .  S
C942       C1404   1.486       .  S
O943       Ni951   1.922       .  S
O943        C953   1.282       .  A
O944       Ni951   1.924       .  S
O944        C954   1.283       .  A
O945       Ni951   1.922       .  S
O945        C955   1.281       .  A
O946       Ni951   1.919       .  S
O946        C956   1.281       .  A
O947       Ni952   1.930       .  S
O947        C956   1.283       .  A
O948       Ni952   1.927       .  S
O948        C955   1.283       .  A
O949       Ni952   1.921       .  S
O949        C954   1.282       .  A
O950       Ni952   1.921       .  S
O950        C953   1.281       .  A
Ni951      Ni952   2.385       .  S
C953       C1387   1.487       .  S
C954       C1377   1.493       .  S
C955       C1407   1.486       .  S
C956       C1414   1.487       .  S
O957       Ni965   1.922       .  S
O957        C967   1.282       .  A
O959        C969   1.282       .  A
O960       Ni965   1.924       .  S
O960        C970   1.282       .  A
O961       Ni966   1.917       .  S
O961        C970   1.281       .  A
O962        C969   1.282       .  A
O963       Ni966   1.923       .  S
O963        C968   1.281       .  A
Ni965      Ni966   2.381       .  S
C967       C1424   1.482       .  S
C968       C1344   1.510       .  S
C969       C1354   1.489       .  S
C970       C1367   1.489       .  S
O971       Ni979   1.920       .  S
O971        C981   1.282       .  A
O972       Ni979   1.923       .  S
O972        C982   1.282       .  A
O973       Ni979   1.915       .  S
O973        C983   1.280       .  A
O974       Ni979   1.917       .  S
O974        C984   1.281       .  A
O975       Ni980   1.918       .  S
O975        C984   1.281       .  A
O976       Ni980   1.918       .  S
O976        C983   1.281       .  A
O977       Ni980   1.922       .  S
O977        C982   1.282       .  A
O978       Ni980   1.919       .  S
O978        C981   1.281       .  A
Ni979      Ni980   2.386       .  S
C981       C1384   1.483       .  S
C982       C1334   1.489       .  S
C983       C1364   1.481       .  S
C984       C1357   1.483       .  S
O985       Ni993   1.918       .  S
O986       Ni993   1.925       .  S
O987       Ni993   1.928       .  S
O987        C997   1.284       .  A
O988       Ni993   1.928       .  S
O988        C998   1.283       .  A
O989       Ni994   1.922       .  S
O990       Ni994   1.920       .  S
O991       Ni994   1.928       .  S
O991        C996   1.282   1_556  A
O992       Ni994   1.923       .  S
O992        C995   1.281       .  A
C995       C1547   1.477       .  S
C996       C1327   1.484       .  S
C997       C1304   1.502       .  S
C998       C1314   1.503       .  S
O999      Ni1007   1.923       .  S
O999       C1009   1.281       .  A
O1000     Ni1007   1.921       .  S
O1000      C1010   1.281       .  A
O1001     Ni1007   1.927       .  S
O1001      C1011   1.283       .  A
O1002     Ni1007   1.934       .  S
O1002      C1012   1.284       .  A
O1003     Ni1008   1.912       .  S
O1003      C1012   1.280       .  A
O1004     Ni1008   1.919       .  S
O1004      C1011   1.281       .  A
O1005     Ni1008   1.921       .  S
O1005      C1010   1.282       .  A
O1006     Ni1008   1.921       .  S
O1006      C1009   1.281       .  A
Ni1007    Ni1008   2.380       .  S
C1009      C1537   1.508       .  S
C1010      C1297   1.484       .  S
C1011      C1274   1.492       .  S
C1012      C1284   1.495       .  S
O1013     Ni1021   1.925       .  S
O1014     Ni1021   1.923       .  S
O1015     Ni1021   1.923       .  S
O1015      C1025   1.282   1_556  A
O1016     Ni1021   1.926       .  S
O1016      C1026   1.283       .  A
O1017     Ni1022   1.919       .  S
O1018     Ni1022   1.924       .  S
O1019     Ni1022   1.925       .  S
O1019      C1024   1.282       .  A
O1020     Ni1022   1.920       .  S
O1020      C1023   1.281       .  A
C1023      C1597   1.490       .  S
C1024      C1324   1.481       .  S
C1025      C1447   1.493       .  S
C1026      C1264   1.489       .  S
O1027     Ni1035   1.924       .  S
O1027      C1037   1.282       .  A
O1028     Ni1035   1.931       .  S
O1028      C1038   1.284       .  A
O1029     Ni1035   1.922       .  S
O1029      C1039   1.281       .  A
O1030     Ni1035   1.920       .  S
O1030      C1040   1.281       .  A
O1031     Ni1036   1.929       .  S
O1031      C1040   1.283       .  A
O1032     Ni1036   1.918       .  S
O1032      C1039   1.281       .  A
O1033     Ni1036   1.916       .  S
O1033      C1038   1.280       .  A
O1034     Ni1036   1.927       .  S
O1034      C1037   1.282       .  A
Ni1035    Ni1036   2.378       .  S
C1037      C1574   1.501       .  S
C1038      C1294   1.490       .  S
C1039      C1434   1.503       .  S
C1040      C1254   1.495       .  S
O1041     Ni1049   1.924       .  S
O1042     Ni1049   1.928       .  S
O1043     Ni1049   1.924       .  S
O1043      C1053   1.281       .  A
O1044     Ni1049   1.921       .  S
O1044      C1054   1.283   1_556  A
O1045     Ni1050   1.928       .  S
O1046     Ni1050   1.924       .  S
O1047     Ni1050   1.927       .  S
O1047      C1052   1.282       .  A
O1048     Ni1050   1.917       .  S
O1048      C1051   1.281       .  A
C1051      C1397   1.488       .  S
C1052      C1244   1.490       .  S
C1053      C1234   1.499       .  S
C1054      C1317   1.504       .  S
O1055     Ni1063   1.923       .  S
O1055      C1065   1.282       .  A
O1056     Ni1063   1.925       .  S
O1056      C1066   1.283       .  A
O1057     Ni1063   1.919       .  S
O1057      C1067   1.281       .  A
O1058     Ni1063   1.920       .  S
O1058      C1068   1.282       .  A
O1059     Ni1064   1.920       .  S
O1059      C1068   1.282       .  A
O1060     Ni1064   1.923       .  S
O1060      C1067   1.282       .  A
O1061     Ni1064   1.922       .  S
O1061      C1066   1.282       .  A
O1062     Ni1064   1.923       .  S
O1062      C1065   1.282       .  A
Ni1063    Ni1064   2.386       .  S
C1065      C1374   1.491       .  S
C1066      C1224   1.486       .  S
C1067      C1214   1.484       .  S
C1068      C1287   1.488       .  S
O1069     Ni1077   1.921       .  S
O1070     Ni1077   1.917       .  S
O1071     Ni1077   1.923       .  S
O1071      C1081   1.282       .  A
O1072     Ni1077   1.924       .  S
O1072      C1082   1.283       .  A
O1073     Ni1078   1.922       .  S
O1074     Ni1078   1.925       .  S
O1075     Ni1078   1.922       .  S
O1075      C1080   1.282       .  A
O1076     Ni1078   1.919       .  S
O1076      C1079   1.281   1_556  A
C1079      C1347   1.479       .  S
C1080      C1247   1.484       .  S
C1081      C1497   1.484       .  S
C1082      C1267   1.489       .  S
O1083     Ni1091   1.925       .  S
O1083      C1093   1.283       .  A
O1084     Ni1091   1.925       .  S
O1084      C1094   1.283       .  A
O1085     Ni1091   1.920       .  S
O1085      C1095   1.281       .  A
O1086     Ni1091   1.914       .  S
O1086      C1096   1.281       .  A
O1087     Ni1092   1.929       .  S
O1087      C1096   1.283       .  A
O1088     Ni1092   1.927       .  S
O1088      C1095   1.283       .  A
O1089     Ni1092   1.919       .  S
O1089      C1094   1.281       .  A
O1090     Ni1092   1.921       .  S
O1090      C1093   1.281       .  A
Ni1091    Ni1092   2.384       .  S
C1093      C1337   1.492       .  S
C1094      C1227   1.485       .  S
C1095      C1477   1.494       .  S
C1096      C1257   1.489       .  S
O1098     Ni1105   1.931       .  S
O1099     Ni1105   1.911       .  S
O1099      C1109   1.281       .  A
O1100      C1110   1.280       .  A
O1101      C1110   1.281       .  A
O1102     Ni1106   1.921       .  S
O1102      C1109   1.278       .  A
O1103      C1108   1.280       .  A
O1104     Ni1106   1.925       .  S
O1104      C1107   1.282       .  A
Ni1105    Ni1106   2.381       .  S
C1107      C1204   1.497       .  S
C1109      C1197   1.505       .  S
C1110      C1184   1.476       .  S
O1111     Ni1119   1.916       .  S
O1111      C1121   1.278       .  A
O1112     Ni1119   1.926       .  S
O1112      C1122   1.283       .  A
O1113     Ni1119   1.908       .  S
O1113      C1123   1.278       .  A
O1114     Ni1119   1.917       .  S
O1114      C1124   1.277       .  A
O1115     Ni1120   1.913       .  S
O1115      C1124   1.282       .  A
O1116     Ni1120   1.923       .  S
O1116      C1123   1.283       .  A
O1117     Ni1120   1.915       .  S
O1117      C1122   1.280       .  A
O1118     Ni1120   1.922       .  S
O1118      C1121   1.283       .  A
Ni1119    Ni1120   2.376       .  S
C1121      C1177   1.507       .  S
C1122      C1277   1.487       .  S
C1123      C1187   1.479       .  S
C1124      C1194   1.502       .  S
O1125     Ni1133   1.920       .  S
O1125      C1135   1.282       .  A
O1127      C1137   1.283       .  A
O1128     Ni1133   1.921       .  S
O1128      C1138   1.282       .  A
O1129     Ni1134   1.923       .  S
O1129      C1138   1.282       .  A
O1130      C1137   1.281       .  A
O1131     Ni1134   1.922       .  S
O1131      C1136   1.282       .  A
Ni1133    Ni1134   2.386       .  S
C1135      C1207   1.492       .  S
C1136      C1237   1.484       .  S
C1137      C1157   1.485       .  S
C1138      C1164   1.484       .  S
O1139     Ni1147   1.926       .  S
O1139      C1149   1.284       .  A
O1140     Ni1147   1.924       .  S
O1140      C1150   1.283       .  A
O1141     Ni1147   1.926       .  S
O1141      C1151   1.282       .  A
O1142     Ni1147   1.915       .  S
O1142      C1152   1.280       .  A
O1143     Ni1148   1.931       .  S
O1143      C1152   1.283       .  A
O1144     Ni1148   1.920       .  S
O1144      C1151   1.281       .  A
O1145     Ni1148   1.915       .  S
O1145      C1150   1.280       .  A
O1146     Ni1148   1.915       .  S
O1146      C1149   1.276       .  A
Ni1147    Ni1148   2.379       .  S
C1149      C1174   1.513       .  S
C1150      C1217   1.489       .  S
C1151      C1167   1.486       .  S
C1152      C1154   1.487       .  S
C1153      C1154   1.412       .  A
C1153      C1158   1.412       .  A
C1153     Br1160   1.928       .  S
C1154      C1155   1.414       .  A
C1155      C1156   1.410       .  A
C1155     Br1162   1.933       .  S
C1156      C1157   1.411       .  A
C1156     Br1161   1.931       .  S
C1157      C1158   1.413       .  A
C1158     Br1159   1.933       .  S
C1163      C1164   1.412       .  A
C1163      C1168   1.410       .  A
C1163     Br1170   1.932       .  S
C1164      C1165   1.412       .  A
C1165      C1166   1.411       .  A
C1165     Br1172   1.932       .  S
C1166      C1167   1.414       .  A
C1166     Br1171   1.933       .  S
C1167      C1168   1.412       .  A
C1168     Br1169   1.929       .  S
C1173      C1174   1.422       .  A
C1173      C1178   1.413   1_655  A
C1173     Br1180   1.941       .  S
C1174      C1175   1.429       .  A
C1175      C1176   1.415   1_655  A
C1175     Br1182   1.942       .  S
C1176      C1177   1.418       .  A
C1176     Br1181   1.942       .  S
C1177      C1178   1.421       .  A
C1178     Br1179   1.942       .  S
C1183      C1184   1.411       .  A
C1183      C1188   1.407       .  A
C1183     Br1190   1.933       .  S
C1184      C1185   1.411       .  A
C1185      C1186   1.408       .  A
C1185     Br1192   1.933       .  S
C1186      C1187   1.413       .  A
C1186     Br1191   1.934       .  S
C1187      C1188   1.411       .  A
C1188     Br1189   1.930       .  S
C1193      C1194   1.419       .  A
C1193      C1198   1.411       .  A
C1193     Br1200   1.944       .  S
C1194      C1195   1.422       .  A
C1195      C1196   1.413       .  A
C1195     Br1202   1.941       .  S
C1196      C1197   1.423       .  A
C1196     Br1201   1.943       .  S
C1197      C1198   1.423       .  A
C1198     Br1199   1.939       .  S
C1203      C1204   1.417       .  A
C1203      C1208   1.412   1_455  A
C1203     Br1210   1.928       .  S
C1205      C1206   1.412   1_455  A
C1205     Br1212   1.935       .  S
C1206     Br1211   1.934       .  S
C1207      C1208   1.414       .  A
C1208     Br1209   1.936       .  S
C1213      C1214   1.412       .  A
C1213      C1218   1.411       .  A
C1213     Br1220   1.932       .  S
C1214      C1215   1.411       .  A
C1215      C1216   1.410       .  A
C1215     Br1222   1.934       .  S
C1216      C1217   1.417       .  A
C1216     Br1221   1.934       .  S
C1217      C1218   1.414       .  A
C1218     Br1219   1.933       .  S
C1223      C1224   1.412       .  A
C1223      C1228   1.410       .  A
C1223     Br1230   1.931       .  S
C1224      C1225   1.413       .  A
C1225      C1226   1.412       .  A
C1225     Br1232   1.931       .  S
C1226      C1227   1.412       .  A
C1226     Br1231   1.932       .  S
C1227      C1228   1.413       .  A
C1228     Br1229   1.932       .  S
C1233      C1238   1.410       .  A
C1233     Br1240   1.935       .  S
C1234      C1235   1.419       .  A
C1235      C1236   1.412       .  A
C1235     Br1242   1.929       .  S
C1236     Br1241   1.934       .  S
C1237      C1238   1.410       .  A
C1238     Br1239   1.933       .  S
C1243      C1248   1.409       .  A
C1243     Br1250   1.918       .  S
C1244      C1245   1.412       .  A
C1245      C1246   1.411       .  A
C1245     Br1252   1.922       .  S
C1246     Br1251   1.933       .  S
C1247      C1248   1.411       .  A
C1248     Br1249   1.934       .  S
C1253      C1254   1.414       .  A
C1253      C1258   1.409       .  A
C1253     Br1260   1.925       .  S
C1254      C1255   1.417       .  A
C1255      C1256   1.413       .  A
C1255     Br1262   1.934       .  S
C1256      C1257   1.413       .  A
C1256     Br1261   1.932       .  S
C1257      C1258   1.412       .  A
C1258     Br1259   1.936       .  S
C1263      C1268   1.410       .  A
C1263     Br1270   1.934       .  S
C1264      C1265   1.414       .  A
C1265      C1266   1.412       .  A
C1265     Br1272   1.933       .  S
C1266     Br1271   1.933       .  S
C1267      C1268   1.414       .  A
C1268     Br1269   1.933       .  S
C1273      C1274   1.415       .  A
C1273      C1278   1.412       .  A
C1273     Br1280   1.933       .  S
C1274      C1275   1.415       .  A
C1275      C1276   1.409       .  A
C1275     Br1282   1.927       .  S
C1276      C1277   1.410       .  A
C1276     Br1281   1.932       .  S
C1277      C1278   1.415       .  A
C1278     Br1279   1.934       .  S
C1283      C1284   1.416       .  A
C1283      C1288   1.412       .  A
C1283     Br1290   1.926       .  S
C1284      C1285   1.417       .  A
C1285      C1286   1.410       .  A
C1285     Br1292   1.935       .  S
C1286      C1287   1.413       .  A
C1286     Br1291   1.935       .  S
C1287      C1288   1.412       .  A
C1288     Br1289   1.934       .  S
C1293      C1294   1.415       .  A
C1293      C1298   1.411       .  A
C1293     Br1300   1.933       .  S
C1294      C1295   1.414       .  A
C1295      C1296   1.410       .  A
C1295     Br1302   1.926       .  S
C1296      C1297   1.411       .  A
C1296     Br1301   1.934       .  S
C1297      C1298   1.412       .  A
C1298     Br1299   1.933       .  S
C1303      C1304   1.421       .  A
C1303      C1308   1.411       .  A
C1303     Br1310   1.935       .  S
C1305      C1306   1.413       .  A
C1305     Br1312   1.935       .  S
C1306     Br1311   1.935       .  S
C1307      C1308   1.407       .  A
C1308     Br1309   1.929       .  S
C1313      C1314   1.419       .  A
C1313      C1318   1.416       .  A
C1313     Br1320   1.935       .  S
C1315      C1316   1.411       .  A
C1315     Br1322   1.939       .  S
C1316      C1317   1.416   1_556  A
C1316     Br1321   1.939       .  S
C1318     Br1319   1.934       .  S
C1323      C1328   1.410       .  A
C1323     Br1330   1.930       .  S
C1324      C1325   1.410       .  A
C1325      C1326   1.411       .  A
C1325     Br1332   1.929       .  S
C1326     Br1331   1.926       .  S
C1327      C1328   1.410   1_554  A
C1328     Br1329   1.924       .  S
C1333      C1334   1.413       .  A
C1333      C1338   1.411       .  A
C1333     Br1340   1.935       .  S
C1334      C1335   1.413       .  A
C1335      C1336   1.412       .  A
C1335     Br1342   1.932       .  S
C1336      C1337   1.415       .  A
C1336     Br1341   1.933       .  S
C1337      C1338   1.416       .  A
C1338     Br1339   1.934       .  S
C1343      C1348   1.411       .  A
C1343     Br1350   1.934       .  S
C1344      C1345   1.427       .  A
C1345      C1346   1.411       .  A
C1345     Br1352   1.934       .  S
C1346     Br1351   1.935       .  S
C1347      C1348   1.405       .  A
C1348     Br1349   1.934       .  S
C1353      C1354   1.414       .  A
C1353      C1358   1.411       .  A
C1353     Br1360   1.933       .  S
C1354      C1355   1.414       .  A
C1355      C1356   1.408       .  A
C1355     Br1362   1.925       .  S
C1356      C1357   1.411       .  A
C1356     Br1361   1.935       .  S
C1357      C1358   1.413       .  A
C1358     Br1359   1.933       .  S
C1363      C1364   1.411       .  A
C1363      C1368   1.409       .  A
C1363     Br1370   1.934       .  S
C1364      C1365   1.410       .  A
C1365      C1366   1.409       .  A
C1365     Br1372   1.935       .  S
C1366      C1367   1.415       .  A
C1366     Br1371   1.926       .  S
C1367      C1368   1.415       .  A
C1368     Br1369   1.934       .  S
C1373      C1374   1.414       .  A
C1373      C1378   1.412       .  A
C1373     Br1380   1.934       .  S
C1374      C1375   1.414       .  A
C1375      C1376   1.412       .  A
C1375     Br1382   1.934       .  S
C1376      C1377   1.416       .  A
C1376     Br1381   1.934       .  S
C1377      C1378   1.416       .  A
C1378     Br1379   1.934       .  S
C1383      C1384   1.412       .  A
C1383      C1388   1.410   1_565  A
C1383     Br1390   1.933       .  S
C1384      C1385   1.412       .  A
C1385      C1386   1.411   1_565  A
C1385     Br1392   1.933       .  S
C1386      C1387   1.415       .  A
C1386     Br1391   1.932       .  S
C1387      C1388   1.413       .  A
C1388     Br1389   1.933       .  S
C1393      C1394   1.411       .  A
C1393      C1398   1.410       .  A
C1393     Br1400   1.933       .  S
C1395      C1396   1.411       .  A
C1395     Br1402   1.932       .  S
C1396     Br1401   1.933       .  S
C1397      C1398   1.415       .  A
C1398     Br1399   1.934       .  S
C1403      C1404   1.412       .  A
C1403      C1408   1.410       .  A
C1403     Br1410   1.931       .  S
C1404      C1405   1.413       .  A
C1405      C1406   1.413       .  A
C1405     Br1412   1.931       .  S
C1406      C1407   1.413       .  A
C1406     Br1411   1.930       .  S
C1407      C1408   1.411       .  A
C1408     Br1409   1.932       .  S
C1413      C1414   1.412       .  A
C1413      C1418   1.414       .  A
C1413     Br1420   1.931       .  S
C1414      C1415   1.411       .  A
C1415      C1416   1.411       .  A
C1415     Br1422   1.932       .  S
C1416      C1417   1.413       .  A
C1416     Br1421   1.931       .  S
C1417      C1418   1.415       .  A
C1418     Br1419   1.932       .  S
C1423      C1428   1.410   1_565  A
C1423     Br1430   1.932       .  S
C1424      C1425   1.411       .  A
C1425      C1426   1.410   1_565  A
C1425     Br1432   1.931       .  S
C1426      C1427   1.413       .  A
C1426     Br1431   1.932       .  S
C1428     Br1429   1.931       .  S
C1433      C1434   1.426       .  A
C1433      C1438   1.411       .  A
C1433     Br1440   1.937       .  S
C1434      C1435   1.426       .  A
C1435      C1436   1.411       .  A
C1435     Br1442   1.933       .  S
C1436      C1437   1.404       .  A
C1436     Br1441   1.934       .  S
C1437      C1438   1.404       .  A
C1438     Br1439   1.933       .  S
C1443      C1444   1.409       .  A
C1443      C1448   1.411       .  A
C1443     Br1450   1.934       .  S
C1445      C1446   1.411       .  A
C1445     Br1452   1.933       .  S
C1446      C1447   1.418       .  A
C1446     Br1451   1.933       .  S
C1448     Br1449   1.934       .  S
C1453      C1454   1.414       .  A
C1453      C1458   1.411       .  A
C1453     Br1460   1.936       .  S
C1454      C1455   1.414       .  A
C1455      C1456   1.409       .  A
C1455     Br1462   1.938       .  S
C1456      C1457   1.418       .  A
C1456     Br1461   1.937       .  S
C1457      C1458   1.423       .  A
C1458     Br1459   1.936       .  S
C1463      C1464   1.418       .  A
C1463      C1468   1.416       .  A
C1463     Br1470   1.936       .  S
C1464      C1465   1.421       .  A
C1465      C1466   1.410       .  A
C1465     Br1472   1.941       .  S
C1466      C1467   1.417       .  A
C1466     Br1471   1.941       .  S
C1467      C1468   1.423       .  A
C1468     Br1469   1.938       .  S
C1473      C1474   1.413       .  A
C1473      C1478   1.414       .  A
C1473     Br1480   1.932       .  S
C1474      C1475   1.413       .  A
C1475      C1476   1.411       .  A
C1475     Br1482   1.933       .  S
C1476      C1477   1.414       .  A
C1476     Br1481   1.933       .  S
C1477      C1478   1.418       .  A
C1478     Br1479   1.934       .  S
C1483      C1484   1.415       .  A
C1483      C1488   1.415   1_655  A
C1483     Br1490   1.931       .  S
C1484      C1485   1.409       .  A
C1485      C1486   1.410   1_655  A
C1485     Br1492   1.931       .  S
C1486      C1487   1.411       .  A
C1486     Br1491   1.923       .  S
C1487      C1488   1.412       .  A
C1488     Br1489   1.928       .  S
C1493      C1494   1.429       .  A
C1493      C1498   1.412       .  A
C1493     Br1500   1.938       .  S
C1495      C1496   1.414       .  A
C1495     Br1502   1.936       .  S
C1496     Br1501   1.934       .  S
C1497      C1498   1.406       .  A
C1498     Br1499   1.935       .  S
C1503      C1504   1.412       .  A
C1503      C1508   1.407       .  A
C1503     Br1510   1.925       .  S
C1504      C1505   1.414       .  A
C1505      C1506   1.413       .  A
C1505     Br1512   1.932       .  S
C1506      C1507   1.413       .  A
C1506     Br1511   1.931       .  S
C1507      C1508   1.410       .  A
C1508     Br1509   1.934       .  S
C1513      C1514   1.415       .  A
C1513      C1518   1.414       .  A
C1513     Br1520   1.932       .  S
C1514      C1515   1.411       .  A
C1515      C1516   1.411       .  A
C1515     Br1522   1.930       .  S
C1516      C1517   1.414       .  A
C1516     Br1521   1.933       .  S
C1517      C1518   1.413       .  A
C1518     Br1519   1.931       .  S
C1523      C1524   1.413       .  A
C1523      C1528   1.413   1_655  A
C1523     Br1530   1.932       .  S
C1525      C1526   1.410   1_655  A
C1525     Br1532   1.934       .  S
C1526     Br1531   1.924       .  S
C1527      C1528   1.412       .  A
C1528     Br1529   1.927       .  S
C1533      C1534   1.404       .  A
C1533      C1538   1.411       .  A
C1533     Br1540   1.935       .  S
C1534      C1535   1.403       .  A
C1535      C1536   1.411       .  A
C1535     Br1542   1.935       .  S
C1536      C1537   1.428       .  A
C1536     Br1541   1.934       .  S
C1537      C1538   1.427       .  A
C1538     Br1539   1.933       .  S
C1543      C1544   1.428       .  A
C1543      C1548   1.410       .  A
C1545      C1546   1.413       .  A
C1545     Br1552   1.935       .  S
C1546      C1547   1.403       .  A
C1548     Br1549   1.933       .  S
C1553      C1554   1.416       .  A
C1553      C1558   1.410       .  A
C1553     Br1560   1.935       .  S
C1554      C1555   1.413       .  A
C1555      C1556   1.409       .  A
C1555     Br1562   1.930       .  S
C1556      C1557   1.415       .  A
C1556     Br1561   1.935       .  S
C1557      C1558   1.412       .  A
C1558     Br1559   1.933       .  S
C1563      C1564   1.414       .  A
C1563      C1568   1.410       .  A
C1563     Br1570   1.935       .  S
C1564      C1565   1.416       .  A
C1565      C1566   1.411       .  A
C1565     Br1572   1.930       .  S
C1566      C1567   1.412       .  A
C1566     Br1571   1.934       .  S
C1567      C1568   1.415       .  A
C1568     Br1569   1.936       .  S
C1573      C1574   1.422       .  A
C1573      C1578   1.413       .  A
C1573     Br1580   1.935       .  S
C1574      C1575   1.420       .  A
C1575      C1576   1.411       .  A
C1575     Br1582   1.928       .  S
C1576      C1577   1.409       .  A
C1576     Br1581   1.936       .  S
C1577      C1578   1.409       .  A
C1578     Br1579   1.933       .  S
C1583      C1584   1.414       .  A
C1583      C1588   1.407   1_565  A
C1583     Br1590   1.933       .  S
C1584      C1585   1.414       .  A
C1585      C1586   1.411   1_565  A
C1585     Br1592   1.932       .  S
C1586      C1587   1.413       .  A
C1586     Br1591   1.933       .  S
C1587      C1588   1.409       .  A
C1588     Br1589   1.933       .  S
C1593      C1598   1.413       .  A
C1593     Br1600   1.933       .  S
C1594      C1595   1.412       .  A
C1595      C1596   1.410       .  A
C1595     Br1602   1.934       .  S
C1596      C1597   1.415       .  A
C1596     Br1601   1.933       .  S
C1598     Br1599   1.933       .  S
C1603      C1604   1.413       .  A
C1603      C1608   1.412       .  A
C1603     Br1610   1.932       .  S
C1604      C1605   1.412       .  A
C1605      C1606   1.409       .  A
C1605     Br1612   1.932       .  S
C1606      C1607   1.413       .  A
C1606     Br1611   1.933       .  S
C1607      C1608   1.413       .  A
C1608     Br1609   1.932       .  S
C1613      C1614   1.412       .  A
C1613      C1618   1.411       .  A
C1613     Br1620   1.931       .  S
C1614      C1615   1.412       .  A
C1615      C1616   1.411       .  A
C1615     Br1622   1.931       .  S
C1616      C1617   1.413       .  A
C1616     Br1621   1.932       .  S
C1617      C1618   1.412       .  A
C1618     Br1619   1.931       .  S
C1623      C1628   1.411   1_545  A
C1623     Br1630   1.932       .  S
C1624      C1625   1.412       .  A
C1625      C1626   1.409   1_545  A
C1625     Br1632   1.933       .  S
C1626      C1627   1.413       .  A
C1626     Br1631   1.932       .  S
C1628     Br1629   1.931       .  S
