geometry optimzed in LAMMPS
_audit_creation_date              2020-11-30 
_audit_creation_method            'lammps2cif' 
_symmetry_space_group_name_H-M    'P1' 
_symmetry_Int_Tables_number       1 
_symmetry_cell_setting            triclinic 
loop_ 
_symmetry_equiv_pos_as_xyz 
  x,y,z 
_cell_length_a                    48.72897157 
_cell_length_b                    47.84811566838028 
_cell_length_c                    45.481012082521616 
_cell_angle_alpha                 90.12506364388221 
_cell_angle_beta                  90.61401038873879 
_cell_angle_gamma                 89.42389520743417 
loop_ 
_atom_site_label 
_atom_site_type_symbol 
_atom_site_fract_x 
_atom_site_fract_y 
_atom_site_fract_z 
_atom_site_charge 
O1          O  0.03001155  0.96206454  0.22178250    -0.72800
O2          O  0.97726526  0.02164840  0.21473256    -0.72900
O3          O  0.03280765  0.01799808  0.21529777    -0.72900
O4          O  0.97446291  0.96532795  0.22092907    -0.73000
O5          O  0.97451616  0.97024626  0.26976626    -0.72900
O6          O  0.03308954  0.02311013  0.26412757    -0.72900
O7          O  0.97751290  0.02660406  0.26358429    -0.72800
O8          O  0.03011280  0.96716213  0.27063059    -0.72900
Ni9        Ni  0.00357662  0.99157812  0.21643416     1.25400
Ni10       Ni  0.00376186  0.99697042  0.26878661     1.25400
C11         C  0.03887120  0.95516507  0.24736903     0.89400
C12         C  0.96891809  0.03394057  0.23805895     0.89300
C13         C  0.04265731  0.02893638  0.23876802     0.89300
C14         C  0.96508369  0.95899562  0.24619751     0.89500
O15         O  0.21271084  0.28376455  0.26090268    -0.79300
O16         O  0.25094236  0.20133151  0.16134316    -0.64000
O17         O  0.24060711  0.23806530  0.23445316    -1.10600
C18         C  0.31049332  0.29788468  0.20189175     1.07600
O19         O  0.29645912  0.20421249  0.16106285    -0.77200
O20         O  0.31666343  0.22323836  0.21278834    -0.64800
Ni21       Ni  0.20387329  0.24682835  0.24694859     1.34900
C22         C  0.31186442  0.23094189  0.23891589     0.86300
O23         O  0.22191201  0.18898158  0.20791943    -0.77700
O24         O  0.19057767  0.21041409  0.23604623    -0.88000
C25         C  0.27406870  0.19413259  0.15157687     0.85900
O26         O  0.19118389  0.26251304  0.21068274    -0.66200
O27         O  0.31974881  0.27619829  0.18900603    -0.85500
C28         C  0.19622196  0.25511088  0.18450987     0.86700
C29         C  0.19965379  0.18922424  0.22214064     1.08300
H30         H  0.26061053  0.26107814  0.17332146     0.40100
O31         O  0.26885090  0.24966490  0.18860427    -1.08200
O32         O  0.29403865  0.24939623  0.24555031    -0.64800
Ni33       Ni  0.26428138  0.26844037  0.22536254     1.26300
O34         O  0.21523099  0.23802222  0.17767196    -0.65000
O35         O  0.28774198  0.29870693  0.21525078    -0.77300
C36         C  0.23491906  0.29331397  0.27148239     0.86100
O37         O  0.25823716  0.28624281  0.26199517    -0.64500
Ni38       Ni  0.30569948  0.24044966  0.17668842     1.27400
Ni39       Ni  0.24516682  0.21928495  0.19780093     1.26100
H40         H  0.24894889  0.22660663  0.24963435     0.40700
O41         O  0.70697796  0.20144858  0.24764841    -0.79300
O42         O  0.79961629  0.24800049  0.16706574    -0.64000
O43         O  0.75516415  0.23126532  0.23310454    -1.10600
C44         C  0.69907294  0.30493552  0.19637142     1.07600
O45         O  0.79674018  0.29395437  0.17341809    -0.77200
O46         O  0.76721631  0.31337278  0.21966670    -0.64800
Ni47       Ni  0.74555090  0.19334865  0.24170617     1.34900
C48         C  0.75788731  0.30585303  0.24432081     0.86300
O49         O  0.80608232  0.21323819  0.21213610    -0.77700
O50         O  0.78317101  0.18117196  0.23807949    -0.88000
C51         C  0.80795153  0.27246986  0.16203625     0.85900
O52         O  0.73747828  0.18151175  0.20240359    -0.66200
O53         O  0.72085530  0.31438778  0.18498478    -0.85500
C54         C  0.74670801  0.18916731  0.17775997     0.86700
C55         C  0.80494375  0.19058106  0.22660896     1.08300
H56         H  0.73941256  0.25688600  0.17178415     0.40100
O57         O  0.74882346  0.26401877  0.18899361    -1.08200
O58         O  0.74209841  0.28507905  0.24757421    -0.64800
Ni59       Ni  0.72636739  0.25668078  0.22229239     1.26300
O60         O  0.76212679  0.21022075  0.17451651    -0.65000
O61         O  0.69786830  0.28202139  0.21034073    -0.77300
C62         C  0.69607442  0.22269893  0.25981805     0.86100
O63         O  0.70460026  0.24719306  0.25528654    -0.64500
Ni64       Ni  0.75832275  0.30200278  0.18041665     1.27400
Ni65       Ni  0.77767115  0.23860518  0.19993088     1.26100
H66         H  0.76457100  0.23835636  0.25033620     0.40700
O67         O  0.80351028  0.69960950  0.17674962    -0.79300
O68         O  0.70088561  0.74435152  0.24471847    -0.64000
O69         O  0.75309520  0.72881642  0.18521337    -1.10600
C70         C  0.80131019  0.80436876  0.22809405     1.07600
O71         O  0.70229456  0.79043815  0.23904057    -0.77200
O72         O  0.73485261  0.80910783  0.19560391    -0.64800
Ni73       Ni  0.76475320  0.69098118  0.17766836     1.34900
C74         C  0.74824634  0.80219900  0.17294436     0.86300
O75         O  0.70067111  0.70952909  0.19944479    -0.77700
O76         O  0.72733663  0.67800505  0.17640241    -0.88000
C77         C  0.69100045  0.76854540  0.24873038     0.85900
O78         O  0.76888889  0.67922636  0.21762162    -0.66200
O79         O  0.77769904  0.81375742  0.23503691    -0.85500
C80         C  0.75699274  0.68693907  0.24098510     0.86700
C81         C  0.70409034  0.68687396  0.18523363     1.08300
H82         H  0.76023194  0.75525619  0.24827494     0.40100
O83         O  0.75279386  0.76186782  0.22974620    -1.08200
O84         O  0.76624459  0.78274977  0.17267010    -0.64800
Ni85       Ni  0.77948522  0.75474810  0.20020629     1.26300
O86         O  0.74057687  0.70774230  0.24228830    -0.65000
O87         O  0.80536559  0.78062518  0.21622929    -0.77300
C88         C  0.81555492  0.72136502  0.16769823     0.86100
O89         O  0.80562100  0.74563815  0.17103110    -0.64500
Ni90       Ni  0.74067368  0.79977094  0.23594976     1.27400
Ni91       Ni  0.72660841  0.73560803  0.21506220     1.26100
H92         H  0.74552741  0.73589248  0.16693640     0.40700
O93         O  0.28819356  0.80553277  0.17274532    -0.79300
O94         O  0.26689632  0.69423959  0.24492041    -0.64000
O95         O  0.26765239  0.75303965  0.18911057    -1.10600
C96         C  0.19551419  0.79208089  0.24215987     1.07600
O97         O  0.22235965  0.69472297  0.25586054    -0.77200
O98         O  0.19995070  0.72168091  0.20874662    -0.64800
Ni99       Ni  0.30285875  0.76858722  0.18012734     1.34900
C100        C  0.20019042  0.73805832  0.18687625     0.86300
O101        O  0.29179324  0.70085791  0.19468617    -0.77700
O102        O  0.32250260  0.73337597  0.18394520    -0.88000
C103        C  0.24603230  0.68342474  0.25628181     0.85900
O104        O  0.31036621  0.77815414  0.22010077    -0.66200
O105        O  0.18815775  0.76679433  0.24450694    -0.85500
C106        C  0.31031021  0.76133071  0.24161909     0.86700
C107        C  0.31516711  0.70802900  0.18578145     1.08300
H108        H  0.25154739  0.75351157  0.25682401     0.40100
O109        O  0.24299296  0.74695178  0.23885761    -1.08200
O110        O  0.21272659  0.76134031  0.18706585    -0.64800
Ni111      Ni  0.24280244  0.77630529  0.21057803     1.26300
O112        O  0.29782307  0.73804344  0.24093759    -0.65000
O113        O  0.21878958  0.79910172  0.23293734    -0.77300
C114        C  0.26432969  0.81638706  0.17126505     0.86100
O115        O  0.24341352  0.80542298  0.18242578    -0.64500
Ni116      Ni  0.20779349  0.73162291  0.24846854     1.27400
Ni117      Ni  0.26770780  0.72357521  0.21718720     1.26100
H118        H  0.25927714  0.74657546  0.17100863     0.40700
O119        O  0.30827338  0.95512999  0.93888510    -0.72800
O120        O  0.30771617  0.02668891  0.97614087    -0.72900
O121        O  0.29987443  0.97367625  0.99408766    -0.72900
O122        O  0.31618464  0.00852571  0.92064010    -0.73000
O123        O  0.27127675  0.01286981  0.91109014    -0.72900
O124        O  0.25498039  0.97811605  0.98445224    -0.72900
O125        O  0.26280499  0.03110322  0.96647561    -0.72800
O126        O  0.26336404  0.95959978  0.92928195    -0.72900
Ni127      Ni  0.30966002  0.99084664  0.95770861     1.25400
Ni128      Ni  0.26151174  0.99558845  0.94737903     1.25400
C129        C  0.28575831  0.94549247  0.92858074     0.89400
C130        C  0.28507876  0.04030239  0.97777041     0.89300
C131        C  0.27480484  0.97018745  0.00120225     0.89300
C132        C  0.29630807  0.01680423  0.90411978     0.89500
O133        O  0.98359830  0.31133328  0.99202930    -0.72800
O134        O  0.04226918  0.30756480  0.93631490    -0.72900
O135        O  0.98662224  0.30984572  0.93249401    -0.72900
O136        O  0.03917993  0.30912017  0.99585881    -0.73000
O137        O  0.03774369  0.26249396  0.99690635    -0.72900
O138        O  0.98526325  0.26321625  0.93358586    -0.72900
O139        O  0.04082493  0.26095265  0.93744359    -0.72800
O140        O  0.98225644  0.26470900  0.99301589    -0.72900
Ni141      Ni  0.01296922  0.31114865  0.96412128     1.25400
Ni142      Ni  0.01147139  0.26118340  0.96526385     1.25400
C143        C  0.97341483  0.28859058  0.00166876     0.89400
C144        C  0.05114708  0.28361960  0.92782024     0.89300
C145        C  0.97730950  0.28663764  0.92278030     0.89300
C146        C  0.04701827  0.28567678  0.00672221     0.89500
O147        O  0.70410018  0.02596341  0.92986445    -0.72800
O148        O  0.70467319  0.96805666  0.98838983    -0.72900
O149        O  0.70269141  0.02492291  0.98962637    -0.72900
O150        O  0.70611517  0.96903832  0.92870505    -0.73000
O151        O  0.75187998  0.97024636  0.93051689    -0.72900
O152        O  0.74846349  0.02601113  0.99131423    -0.72900
O153        O  0.75044753  0.96927111  0.99010666    -0.72800
O154        O  0.74986987  0.02709302  0.93166754    -0.72900
Ni155      Ni  0.70274651  0.99696155  0.95906770     1.25400
Ni156      Ni  0.75178034  0.99820640  0.96095441     1.25400
C157        C  0.72690215  0.03605645  0.92127458     0.89400
C158        C  0.72768916  0.95916684  0.99874948     0.89300
C159        C  0.72507071  0.03459068  0.00042979     0.89300
C160        C  0.72957465  0.96038825  0.91978851     0.89500
O161        O  0.04490972  0.67253019  0.00131580    -0.72800
O162        O  0.98508741  0.66754387  0.94573380    -0.72900
O163        O  0.04071024  0.66532152  0.94209126    -0.72900
O164        O  0.98953371  0.67475237  0.00498094    -0.73000
O165        O  0.99043556  0.72102726  0.99878976    -0.72900
O166        O  0.04147722  0.71161489  0.93606503    -0.72900
O167        O  0.98606303  0.71381569  0.93970954    -0.72800
O168        O  0.04569843  0.71879536  0.99509518    -0.72900
Ni169      Ni  0.01502216  0.66835139  0.97373436     1.25400
Ni170      Ni  0.01594702  0.71794202  0.96716619     1.25400
C171        C  0.05487457  0.69653989  0.00745680     0.89400
C172        C  0.97585093  0.68992689  0.93358955     0.89300
C173        C  0.04941719  0.68701066  0.92880435     0.89300
C174        C  0.98186536  0.69944605  0.01231027     0.89500
O175        O  0.28909420  0.76280034  0.77256949    -0.79300
O176        O  0.25904569  0.72082732  0.64821801    -0.64000
O177        O  0.26805535  0.76736755  0.71511990    -1.10600
C178        C  0.18856047  0.72039894  0.74761464     1.07600
O179        O  0.21465750  0.73119332  0.64472783    -0.77200
O180        O  0.18923639  0.76289554  0.68581447    -0.64800
Ni181      Ni  0.30305103  0.77117271  0.73409589     1.34900
C182        C  0.19563586  0.78244680  0.70336333     0.86300
O183        O  0.29424857  0.76127420  0.66129835    -0.77700
O184        O  0.31993550  0.78054425  0.69739256    -0.88000
C185        C  0.23660375  0.72107152  0.63400772     0.85900
O186        O  0.31579683  0.73343177  0.73083198    -0.66200
O187        O  0.18281600  0.71641314  0.72049089    -0.85500
C188        C  0.30896901  0.71325213  0.71431357     0.86700
C189        C  0.31485942  0.77506300  0.67044708     1.08300
H190        H  0.24071678  0.70876316  0.70843062     0.40100
O191        O  0.23540214  0.72749307  0.70267227    -1.08200
O192        O  0.21406095  0.78002314  0.72323402    -0.64800
Ni193      Ni  0.23890418  0.75071259  0.73644802     1.26300
O194        O  0.28952739  0.71469565  0.69544982    -0.65000
O195        O  0.20984602  0.73297928  0.75691014    -0.77300
C196        C  0.26755939  0.77336160  0.78364811     0.86100
O197        O  0.24487976  0.77360917  0.76992276    -0.64500
Ni198      Ni  0.20033236  0.72451757  0.68358172     1.27400
Ni199      Ni  0.26482347  0.74390724  0.68156585     1.26100
H200        H  0.26244915  0.78596154  0.70918063     0.40700
O201        O  0.97974940  0.96503697  0.72205522    -0.72800
O202        O  0.03545382  0.02071336  0.71994705    -0.72900
O203        O  0.97981648  0.02177735  0.72035060    -0.72900
O204        O  0.03545284  0.96413919  0.72158853    -0.73000
O205        O  0.03460977  0.96277187  0.67252400    -0.72900
O206        O  0.97895822  0.02044026  0.67128948    -0.72900
O207        O  0.03464589  0.01936830  0.67084246    -0.72800
O208        O  0.97889281  0.96365630  0.67295853    -0.72900
Ni209      Ni  0.00762104  0.99296080  0.72273797     1.25400
Ni210      Ni  0.00671980  0.99150078  0.67014034     1.25400
C211        C  0.97030263  0.95520673  0.69785715     0.89400
C212        C  0.04418652  0.02903642  0.69507440     0.89300
C213        C  0.97038132  0.03064184  0.69563555     0.89300
C214        C  0.04425154  0.95415250  0.69724573     0.89500
O215        O  0.29953085  0.19813739  0.73867759    -0.79300
O216        O  0.24893056  0.29920434  0.67186507    -0.64000
O217        O  0.26991587  0.24895418  0.73272278    -1.10600
C218        C  0.19331935  0.19764359  0.69935138     1.07600
O219        O  0.20459211  0.29809921  0.68267673    -0.77200
O220        O  0.18942023  0.26556310  0.72818631    -0.64800
Ni221      Ni  0.30740254  0.23762290  0.73810192     1.34900
C222        C  0.19878629  0.25390614  0.75124919     0.86300
O223        O  0.28725647  0.30116594  0.71357680    -0.77700
O224        O  0.31881497  0.27599943  0.73892796    -0.88000
C225        C  0.22502588  0.30964848  0.67073074     0.85900
O226        O  0.31731513  0.23423091  0.69775273    -0.66200
O227        O  0.18343661  0.22100676  0.69069468    -0.85500
C228        C  0.30703017  0.24390206  0.67413528     0.86700
C229        C  0.30949340  0.29886840  0.72831532     1.08300
H230        H  0.23870381  0.23841760  0.67312797     0.40100
O231        O  0.23373101  0.24699190  0.69160498    -1.08200
O232        O  0.21867197  0.23642601  0.75135950    -0.64800
Ni233      Ni  0.24359030  0.22142085  0.72221472     1.26300
O234        O  0.28524675  0.25875535  0.67310204    -0.65000
O235        O  0.21707395  0.19443604  0.71067609    -0.77300
C236        C  0.28005473  0.18606632  0.75175500     0.86100
O237        O  0.25594810  0.19617586  0.75194371    -0.64500
Ni238      Ni  0.19618047  0.25890443  0.68753342     1.27400
Ni239      Ni  0.26047645  0.27428327  0.70197555     1.26100
H240        H  0.26448533  0.25763937  0.75099108     0.40700
O241        O  0.79911772  0.29460806  0.74938364    -0.79300
O242        O  0.70781315  0.24971995  0.66475754    -0.64000
O243        O  0.75041288  0.26627717  0.73313214    -1.10600
C244        C  0.80453802  0.18879072  0.70127073     1.07600
O245        O  0.70764165  0.20413891  0.67407322    -0.77200
O246        O  0.73571465  0.18415320  0.72187552    -0.64800
Ni247      Ni  0.76088397  0.30393527  0.74213167     1.34900
C248        C  0.74498659  0.19201535  0.74668816     0.86300
O249        O  0.70129926  0.28695485  0.70780237    -0.77700
O250        O  0.72367368  0.31737330  0.73695629    -0.88000
C251        C  0.69795244  0.22559479  0.66093062     0.85900
O252        O  0.76978528  0.31555647  0.70321165    -0.66200
O253        O  0.78253888  0.18004951  0.68904621    -0.85500
C254        C  0.76222235  0.30712645  0.67795769     0.86700
C255        C  0.70237832  0.30940762  0.72288374     1.08300
H256        H  0.76692130  0.23773413  0.67363656     0.40100
O257        O  0.75664739  0.23181639  0.69053735    -1.08200
O258        O  0.76127839  0.21241148  0.75002765    -0.64800
Ni259      Ni  0.77854760  0.23923394  0.72458899     1.26300
O260        O  0.74720824  0.28582935  0.67375267    -0.65000
O261        O  0.80630863  0.21206807  0.71479203    -0.77300
C262        C  0.80942423  0.27322810  0.76204425     0.86100
O263        O  0.79995290  0.24897729  0.75815787    -0.64500
Ni264      Ni  0.74557424  0.19413501  0.68269257     1.27400
Ni265      Ni  0.72885462  0.25927883  0.69868430     1.26100
H266        H  0.74004808  0.25983652  0.74975086     0.40700
O267        O  0.71238640  0.78917804  0.67300473    -0.79300
O268        O  0.80479288  0.74120557  0.76025514    -0.64000
O269        O  0.75949940  0.75813731  0.69312797    -1.10600
C270        C  0.70429548  0.68527390  0.72574040     1.07600
O271        O  0.79956116  0.69502011  0.75936706    -0.77200
O272        O  0.77666202  0.68086128  0.70627002    -0.64800
Ni273      Ni  0.74996460  0.79654705  0.68487391     1.34900
C274        C  0.76455842  0.68644954  0.68210733     0.86300
O275        O  0.81102679  0.77432966  0.71430305    -0.77700
O276        O  0.78657373  0.80918897  0.69367890    -0.88000
C277        C  0.81163916  0.71681539  0.76853716     0.85900
O278        O  0.73831454  0.80565944  0.72373246    -0.66200
O279        O  0.72702627  0.67417669  0.73356441    -0.85500
C280        C  0.74980516  0.79968149  0.74812989     0.86700
C281        C  0.80894846  0.79860675  0.70331744     1.08300
H282        H  0.74449240  0.73332882  0.75548104     0.40100
O283        O  0.75336460  0.72614759  0.73808887    -1.08200
O284        O  0.74534448  0.70457408  0.67977334    -0.64800
Ni285      Ni  0.73047960  0.73404301  0.70451563     1.26300
O286        O  0.76752427  0.78010240  0.75124888    -0.65000
O287        O  0.70186612  0.71033810  0.71715847    -0.77300
C288        C  0.70068027  0.76733229  0.66335942     0.86100
O289        O  0.70816894  0.74302452  0.67106727    -0.64500
Ni290      Ni  0.76292781  0.68744106  0.74492005     1.27400
Ni291      Ni  0.78240344  0.75041015  0.72678706     1.26100
H292        H  0.76845731  0.75065725  0.67592612     0.40700
O293        O  0.46953360  0.47585302  0.74975620    -0.72800
O294        O  0.52643436  0.52997797  0.74465139    -0.72900
O295        O  0.47087851  0.53242086  0.74812978    -0.72900
O296        O  0.52516562  0.47350782  0.74612682    -0.73000
O297        O  0.52199850  0.47226647  0.69714360    -0.72900
O298        O  0.46770844  0.53118156  0.69914647    -0.72900
O299        O  0.52333502  0.52884226  0.69562574    -0.72800
O300        O  0.46626380  0.47456586  0.70074892    -0.72900
Ni301      Ni  0.49810588  0.50296651  0.74890573     1.25400
Ni302      Ni  0.49469262  0.50165363  0.69639772     1.25400
C303        C  0.45850996  0.46649361  0.72612610     0.89400
C304        C  0.53425409  0.53814616  0.71936933     0.89300
C305        C  0.46037698  0.54140112  0.72394567     0.89300
C306        C  0.53269774  0.46348247  0.72131090     0.89500
O307        O  0.52666395  0.46751170  0.14974284    -0.72800
O308        O  0.47322729  0.52608930  0.13973521    -0.72900
O309        O  0.52876355  0.52387748  0.14289033    -0.72900
O310        O  0.47104352  0.46975452  0.14677979    -0.73000
O311        O  0.46955035  0.47543905  0.19548221    -0.72900
O312        O  0.52706056  0.52930926  0.19161300    -0.72900
O313        O  0.47168995  0.53158173  0.18848227    -0.72800
O314        O  0.52503402  0.47306320  0.19847168    -0.72900
Ni315      Ni  0.49998620  0.49658566  0.14301544     1.25400
Ni316      Ni  0.49826978  0.50253433  0.19523560     1.25400
C317        C  0.53452765  0.46071429  0.17571550     0.89400
C318        C  0.46390186  0.53850075  0.16253327     0.89300
C319        C  0.53719598  0.53555354  0.16666248     0.89300
C320        C  0.46092277  0.46375256  0.17185203     0.89500
O321        O  0.75760434  0.52552718  0.43150529    -0.72800
O322        O  0.76081821  0.46927356  0.49171349    -0.72900
O323        O  0.75895089  0.52608785  0.49125881    -0.72900
O324        O  0.75941164  0.46872670  0.43200613    -0.73000
O325        O  0.80518108  0.46968485  0.43121463    -0.72900
O326        O  0.80471900  0.52717185  0.49060210    -0.72900
O327        O  0.80658743  0.47026101  0.49105013    -0.72800
O328        O  0.80336843  0.52661057  0.43074475    -0.72900
Ni329      Ni  0.75758558  0.49737209  0.46164395     1.25400
Ni330      Ni  0.80661160  0.49847693  0.46087687     1.25400
C331        C  0.77993533  0.53528471  0.42127570     0.89400
C332        C  0.78420241  0.46051723  0.50119942     0.89300
C333        C  0.78173468  0.53600766  0.50064744     0.89300
C334        C  0.78232296  0.45978199  0.42194450     0.89500
O335        O  0.52865486  0.76721962  0.48485423    -0.72800
O336        O  0.46915012  0.76829313  0.42898062    -0.72900
O337        O  0.52436408  0.76585204  0.42521332    -0.72900
O338        O  0.47330238  0.76987232  0.48836018    -0.73000
O339        O  0.47479573  0.81650705  0.48699791    -0.72900
O340        O  0.52590654  0.81248377  0.42390051    -0.72900
O341        O  0.47055729  0.81490161  0.42750286    -0.72800
O342        O  0.53027058  0.81381409  0.48369172    -0.72900
Ni343      Ni  0.49885556  0.76615288  0.45691170     1.25400
Ni344      Ni  0.50048026  0.81611771  0.45548884     1.25400
C345        C  0.53900909  0.79028040  0.49368914     0.89400
C346        C  0.46017222  0.79169260  0.41904545     0.89300
C347        C  0.53312251  0.78852012  0.41398463     0.89300
C348        C  0.46566828  0.79385695  0.49788671     0.89500
O349        O  0.25109114  0.46293106  0.45114439    -0.72800
O350        O  0.25034030  0.53511789  0.48729489    -0.72900
O351        O  0.24410213  0.48196442  0.50655875    -0.72900
O352        O  0.25748413  0.51565342  0.43221431    -0.73000
O353        O  0.21228291  0.51922213  0.42395601    -0.72900
O354        O  0.19886889  0.48531468  0.49854088    -0.72900
O355        O  0.20512650  0.53859131  0.47916952    -0.72800
O356        O  0.20587612  0.46647612  0.44298116    -0.72900
Ni357      Ni  0.25236112  0.49879955  0.46970511     1.25400
Ni358      Ni  0.20387744  0.50253875  0.46095735     1.25400
C359        C  0.22866370  0.45323735  0.44065147     0.89400
C360        C  0.22770525  0.54881256  0.48863064     0.89300
C361        C  0.21940802  0.47769208  0.51447311     0.89300
C362        C  0.23708627  0.52277043  0.41592255     0.89500
O363        O  0.46507895  0.23459638  0.48667462    -0.72800
O364        O  0.52079462  0.23022668  0.42792118    -0.72900
O365        O  0.46513127  0.22985638  0.42721767    -0.72900
O366        O  0.52074092  0.23465098  0.48739120    -0.73000
O367        O  0.52129840  0.18812226  0.49116388    -0.72900
O368        O  0.46581425  0.18333576  0.43110895    -0.72900
O369        O  0.52153697  0.18370353  0.43163589    -0.72800
O370        O  0.46558435  0.18809207  0.49062085    -0.72900
Ni371      Ni  0.49291042  0.23399136  0.45715775     1.25400
Ni372      Ni  0.49357723  0.18414173  0.46126762     1.25400
C373        C  0.45622787  0.21212653  0.49828203     0.89400
C374        C  0.53031348  0.20632944  0.42019125     0.89300
C375        C  0.45641825  0.20577850  0.41935650     0.89300
C376        C  0.53007176  0.21212091  0.49910265     0.89500
C377        C  0.63865793  0.77712013  0.60241639     0.18600
C378        C  0.63642183  0.80246868  0.58707646    -0.10500
C379        C  0.61644688  0.80597537  0.56491849    -0.11300
C380        C  0.59851990  0.78415349  0.55786216     0.20200
C381        C  0.60066957  0.75884897  0.57329785    -0.13400
C382        C  0.62064438  0.75534167  0.59545295    -0.11700
C383        C  0.57803520  0.78757854  0.53478334     0.01200
C384        C  0.56057195  0.78952990  0.51571777    -0.31700
C385        C  0.65971956  0.77334633  0.62483712     0.02500
C386        C  0.67795283  0.77043348  0.64292715    -0.33300
H387        H  0.65020550  0.81947930  0.59214602     0.13600
H388        H  0.61505932  0.82565008  0.55322981     0.13400
H389        H  0.58697307  0.74178903  0.56813069     0.13300
H390        H  0.62211817  0.73561656  0.60704047     0.12300
C391        C  0.77989676  0.59550953  0.56572327     0.18600
C392        C  0.78394803  0.58710609  0.59497937    -0.10500
C393        C  0.78275937  0.60675518  0.61783155    -0.11300
C394        C  0.77752709  0.63502987  0.61168581     0.20200
C395        C  0.77352056  0.64348929  0.58241972    -0.13400
C396        C  0.77471817  0.62381049  0.55953025    -0.11700
C397        C  0.77516491  0.65495276  0.63555769     0.01200
C398        C  0.77161058  0.67028635  0.65641224    -0.31700
C399        C  0.78082527  0.57502194  0.54224586     0.02500
C400        C  0.78143404  0.55741413  0.52308082    -0.33300
H401        H  0.78788875  0.56533146  0.60014720     0.13600
H402        H  0.78570016  0.59985230  0.64032745     0.13400
H403        H  0.76926187  0.66521929  0.57731941     0.13300
H404        H  0.77146810  0.63063424  0.53705456     0.12300
C405        C  0.59623321  0.59449119  0.71977959     0.18600
C406        C  0.61495889  0.59335113  0.74334871    -0.10500
C407        C  0.63622250  0.61267819  0.74524240    -0.11300
C408        C  0.63880572  0.63322321  0.72358560     0.20200
C409        C  0.62007214  0.63437990  0.70002921    -0.13400
C410        C  0.59880104  0.61504718  0.69813552    -0.11700
C411        C  0.66108048  0.65263151  0.72512092     0.01200
C412        C  0.68039173  0.66812698  0.72581073    -0.31700
C413        C  0.57426119  0.57473534  0.71806811     0.02500
C414        C  0.55588447  0.55809991  0.71782112    -0.33300
H415        H  0.61312107  0.57754110  0.76021505     0.13600
H416        H  0.65067611  0.61154478  0.76348159     0.13400
H417        H  0.62197650  0.65012929  0.68311288     0.13300
H418        H  0.58440310  0.61611134  0.67984529     0.12300
C419        C  0.78399812  0.40066543  0.56570578     0.18600
C420        C  0.77995268  0.40884080  0.59498305    -0.10500
C421        C  0.77749522  0.38868712  0.61710031    -0.11300
C422        C  0.77906081  0.36012420  0.61019918     0.20200
C423        C  0.78350328  0.35192406  0.58098600    -0.13400
C424        C  0.78596740  0.37210450  0.55883993    -0.11700
C425        C  0.77498329  0.33945475  0.63294901     0.01200
C426        C  0.77009982  0.32353679  0.65286134    -0.31700
C427        C  0.78519547  0.42155069  0.54272489     0.02500
C428        C  0.78523193  0.43927484  0.52373254    -0.33300
H429        H  0.77833320  0.43079237  0.60066303     0.13600
H430        H  0.77399030  0.39538411  0.63953138     0.13400
H431        H  0.78468538  0.32995951  0.57526437     0.13300
H432        H  0.78904192  0.36542772  0.53633021     0.12300
C433        C  0.59060217  0.21608252  0.56175830     0.18600
C434        C  0.61556345  0.22841979  0.55445333    -0.10500
C435        C  0.63686580  0.22980133  0.57524028    -0.11300
C436        C  0.63337117  0.21884875  0.60348558     0.20200
C437        C  0.60842274  0.20643390  0.61082000    -0.13400
C438        C  0.58708130  0.20504967  0.58999467    -0.11700
C439        C  0.65542947  0.22052034  0.62478438     0.01200
C440        C  0.67453592  0.22254839  0.64174630    -0.31700
C441        C  0.56875840  0.21474717  0.54018526     0.02500
C442        C  0.55093274  0.21371521  0.52159298    -0.33300
H443        H  0.61854886  0.23698285  0.53270045     0.13600
H444        H  0.65604883  0.23943527  0.56930024     0.13400
H445        H  0.60547205  0.19787864  0.63258032     0.13300
H446        H  0.56788548  0.19542152  0.59589442     0.12300
C447        C  0.63753380  0.36470528  0.72273840     0.18600
C448        C  0.63231925  0.38039114  0.69720945    -0.10500
C449        C  0.61096800  0.40027746  0.69650562    -0.11300
C450        C  0.59462738  0.40468454  0.72133681     0.20200
C451        C  0.60002073  0.38919015  0.74694294    -0.13400
C452        C  0.62136458  0.36931010  0.74764633    -0.11700
C453        C  0.57241272  0.42505778  0.72064222     0.01200
C454        C  0.55400459  0.44227573  0.72062129    -0.31700
C455        C  0.65951728  0.34407691  0.72338123     0.02500
C456        C  0.67846657  0.32748338  0.72350238    -0.33300
H457        H  0.64471084  0.37720326  0.67782918     0.13600
H458        H  0.60716904  0.41214820  0.67659261     0.13400
H459        H  0.58767911  0.39242482  0.76634983     0.13300
H460        H  0.62520562  0.35749308  0.76758474     0.12300
C461        C  0.39675577  0.22089706  0.56067159     0.18600
C462        C  0.39306718  0.20096793  0.58279570    -0.10500
C463        C  0.37293356  0.20511435  0.60418579    -0.11300
C464        C  0.35629827  0.22920931  0.60362925     0.20200
C465        C  0.35993354  0.24910446  0.58144879    -0.13400
C466        C  0.38006895  0.24495478  0.56005058    -0.11700
C467        C  0.33649516  0.23406033  0.62660369     0.01200
C468        C  0.32164703  0.23835667  0.64731948    -0.31700
C469        C  0.41775581  0.21683934  0.53879732     0.02500
C470        C  0.43532189  0.21411131  0.52038793    -0.33300
H471        H  0.40584596  0.18232067  0.58361384     0.13600
H472        H  0.37051584  0.18966275  0.62131618     0.13400
H473        H  0.34739549  0.26792488  0.58085460     0.13300
H474        H  0.38273086  0.26057425  0.54313605     0.12300
C475        C  0.21509420  0.42647625  0.58463032     0.18600
C476        C  0.19107845  0.41697974  0.59781217    -0.10500
C477        C  0.19235574  0.39464362  0.61760338    -0.11300
C478        C  0.21763907  0.38177273  0.62417396     0.20200
C479        C  0.24169403  0.39171626  0.61149184    -0.13400
C480        C  0.24042107  0.41400603  0.59175597    -0.11700
C481        C  0.21888458  0.35728636  0.64237377     0.01200
C482        C  0.22108512  0.33582426  0.65600486    -0.31700
C483        C  0.21380725  0.44741117  0.56206719     0.02500
C484        C  0.21498163  0.46273196  0.54117692    -0.33300
H485        H  0.17137114  0.42634209  0.59224496     0.13600
H486        H  0.17362116  0.38699032  0.62719186     0.13400
H487        H  0.26131925  0.38180115  0.61630018     0.13300
H488        H  0.25907771  0.42104309  0.58147690     0.12300
C489        C  0.35930904  0.36608617  0.73590442     0.18600
C490        C  0.35251921  0.39174451  0.72279857    -0.10500
C491        C  0.37205905  0.41290528  0.72149918    -0.11300
C492        C  0.39842543  0.40841913  0.73326813     0.20200
C493        C  0.40499192  0.38297757  0.74692370    -0.13400
C494        C  0.38547458  0.36184505  0.74822653    -0.11700
C495        C  0.41906663  0.42947029  0.73055169     0.01200
C496        C  0.43694065  0.44650388  0.72825105    -0.31700
C497        C  0.34019386  0.34344443  0.73499033     0.02500
C498        C  0.32548717  0.32347914  0.73269735    -0.33300
H499        H  0.33237217  0.39516095  0.71307365     0.13600
H500        H  0.36678810  0.43251605  0.71088873     0.13400
H501        H  0.42532579  0.37930848  0.75607972     0.13300
H502        H  0.39095864  0.34201946  0.75826950     0.12300
C503        C  0.87217598  0.85316138  0.70102869     0.18600
C504        C  0.86530948  0.88003745  0.69103342    -0.10500
C505        C  0.88520961  0.90084250  0.69053754    -0.11300
C506        C  0.91204428  0.89484685  0.70005769     0.20200
C507        C  0.91891278  0.86798956  0.71012446    -0.13400
C508        C  0.89899331  0.84716547  0.71062306    -0.11700
C509        C  0.93251794  0.91622296  0.69937822     0.01200
C510        C  0.94969590  0.93411329  0.69867959    -0.31700
C511        C  0.85150379  0.83198772  0.70171988     0.02500
C512        C  0.83289033  0.81565093  0.70231994    -0.33300
H513        H  0.84459034  0.88489658  0.68366154     0.13600
H514        H  0.87969547  0.92155182  0.68273812     0.13400
H515        H  0.93961950  0.86316952  0.71755376     0.13300
H516        H  0.90446942  0.82646992  0.71848259     0.12300
C517        C  0.91127685  0.09244945  0.69671448     0.18600
C518        C  0.88936604  0.08990798  0.71624232    -0.10500
C519        C  0.86868139  0.11045829  0.71721678    -0.11300
C520        C  0.86965574  0.13381655  0.69868538     0.20200
C521        C  0.89166425  0.13648844  0.67926405    -0.13400
C522        C  0.91238493  0.11590558  0.67829046    -0.11700
C523        C  0.84775755  0.15456393  0.69927741     0.01200
C524        C  0.82857645  0.17087666  0.70004506    -0.31700
C525        C  0.93240714  0.07091521  0.69560403     0.02500
C526        C  0.94975773  0.05258181  0.69528920    -0.33300
H527        H  0.88819678  0.07195903  0.73063723     0.13600
H528        H  0.85182683  0.10803565  0.73231255     0.13400
H529        H  0.89272482  0.15437018  0.66476731     0.13300
H530        H  0.92917362  0.11822137  0.66309359     0.12300
C531        C  0.14199127  0.13124417  0.69574036     0.18600
C532        C  0.12651340  0.12587669  0.72084285    -0.10500
C533        C  0.10715548  0.10454526  0.72047377    -0.11300
C534        C  0.10321870  0.08852989  0.69499944     0.20200
C535        C  0.11890113  0.09368093  0.66999188    -0.13400
C536        C  0.13827380  0.11503105  0.67036039    -0.11700
C537        C  0.08271926  0.06720379  0.69442303     0.01200
C538        C  0.06518237  0.04968482  0.69441364    -0.31700
C539        C  0.16108194  0.15390164  0.69587617     0.02500
C540        C  0.17626169  0.17357559  0.69680777    -0.33300
H541        H  0.12922071  0.13834500  0.74055912     0.13600
H542        H  0.09510591  0.10070823  0.73991318     0.13400
H543        H  0.11597722  0.08139081  0.65018972     0.13300
H544        H  0.15012729  0.11907022  0.65083258     0.12300
C545        C  0.23140092  0.62578579  0.52608859     0.18600
C546        C  0.20867621  0.64378522  0.52845177    -0.10500
C547        C  0.21041159  0.66775149  0.54598894    -0.11300
C548        C  0.23488654  0.67371437  0.56106696     0.20200
C549        C  0.25791827  0.65633986  0.55763660    -0.13400
C550        C  0.25618285  0.63242274  0.54015131    -0.11700
C551        C  0.23535432  0.69497619  0.58330700     0.01200
C552        C  0.23586120  0.70902415  0.60524491    -0.31700
C553        C  0.22887550  0.59939936  0.51135879     0.02500
C554        C  0.22778452  0.57639908  0.50073430    -0.33300
H555        H  0.18939141  0.63873343  0.51772362     0.13600
H556        H  0.19239092  0.68088699  0.54883659     0.13400
H557        H  0.27681124  0.66058054  0.56953824     0.13300
H558        H  0.27381425  0.61854263  0.53853960     0.12300
C559        C  0.40953079  0.79598820  0.56331953     0.18600
C560        C  0.38188340  0.79180000  0.55605081    -0.10500
C561        C  0.36235763  0.79035827  0.57822761    -0.11300
C562        C  0.37042555  0.79313214  0.60772140     0.20200
C563        C  0.39803185  0.79768824  0.61498615    -0.13400
C564        C  0.41757621  0.79913568  0.59278693    -0.11700
C565        C  0.35062323  0.78951663  0.63048698     0.01200
C566        C  0.33406276  0.78421040  0.64903754    -0.31700
C567        C  0.42969026  0.79610334  0.54057660     0.02500
C568        C  0.44629594  0.79536296  0.52121632    -0.33300
H569        H  0.37550652  0.78924105  0.53331527     0.13600
H570        H  0.34108447  0.78660133  0.57243163     0.13400
H571        H  0.40448478  0.79963166  0.63776357     0.13300
H572        H  0.43894716  0.80228177  0.59859463     0.12300
C573        C  0.40119243  0.60307439  0.72372935     0.18600
C574        C  0.37775283  0.59977246  0.70591810    -0.10500
C575        C  0.35762078  0.62090411  0.70449278    -0.11300
C576        C  0.36070987  0.64554873  0.72089555     0.20200
C577        C  0.38404583  0.64875647  0.73889989    -0.13400
C578        C  0.40418054  0.62762707  0.74032077    -0.11700
C579        C  0.34050132  0.66790153  0.71861933     0.01200
C580        C  0.32494087  0.68773741  0.71661573    -0.31700
C581        C  0.42228014  0.58149697  0.72455443     0.02500
C582        C  0.43978213  0.56332530  0.72459214    -0.33300
H583        H  0.37513956  0.58095108  0.69294795     0.13600
H584        H  0.33978429  0.61812182  0.69040891     0.13400
H585        H  0.38679860  0.66770023  0.75163944     0.13300
H586        H  0.42215767  0.63053543  0.75416905     0.12300
C587        C  0.10442281  0.89346995  0.69786696     0.18600
C588        C  0.09824673  0.86660023  0.68755627    -0.10500
C589        C  0.11834803  0.84545243  0.68793961    -0.11300
C590        C  0.14486916  0.85091321  0.69862574     0.20200
C591        C  0.15115560  0.87784745  0.70875630    -0.13400
C592        C  0.13101509  0.89904124  0.70836346    -0.11700
C593        C  0.16511686  0.82854537  0.69991865     0.01200
C594        C  0.18028120  0.80835654  0.70126953    -0.31700
C595        C  0.08339843  0.91511197  0.69783408     0.02500
C596        C  0.06552984  0.93290667  0.69765679    -0.33300
H597        H  0.07783379  0.86194115  0.67937612     0.13600
H598        H  0.11313155  0.82475248  0.68011544     0.13400
H599        H  0.17151353  0.88240326  0.71715789     0.13300
H600        H  0.13612827  0.91969352  0.71639955     0.12300
C601        C  0.13719214  0.69589182  0.81263276     0.18600
C602        C  0.14754796  0.69681760  0.84148163    -0.10500
C603        C  0.13022504  0.69194205  0.86521603    -0.11300
C604        C  0.10244387  0.68608774  0.86023494     0.20200
C605        C  0.09220920  0.68455565  0.83135652    -0.13400
C606        C  0.10954451  0.68944132  0.80760332    -0.11700
C607        C  0.08409865  0.68367369  0.88471623     0.01200
C608        C  0.06841207  0.68394402  0.90506358    -0.31700
C609        C  0.15466384  0.70296106  0.78845481     0.02500
C610        C  0.16980351  0.71029565  0.76918747    -0.33300
H611        H  0.16886155  0.70188666  0.84564531     0.13600
H612        H  0.13833858  0.69336758  0.88743550     0.13400
H613        H  0.07072645  0.68022608  0.82724045     0.13300
H614        H  0.10127850  0.68876573  0.78540792     0.12300
C615        C  0.91462553  0.69275730  0.87146963     0.18600
C616        C  0.88773102  0.68369600  0.87612062    -0.10500
C617        C  0.86722755  0.68869511  0.85482543    -0.11300
C618        C  0.87344990  0.70282761  0.82874641     0.20200
C619        C  0.90043491  0.71144771  0.82393724    -0.13400
C620        C  0.92090756  0.70644485  0.84519125    -0.11700
C621        C  0.85217230  0.70874427  0.80710416     0.01200
C622        C  0.83408421  0.71324660  0.78921499    -0.31700
C623        C  0.93557005  0.68929661  0.89399926     0.02500
C624        C  0.95368910  0.68845139  0.91239194    -0.33300
H625        H  0.88253502  0.67313634  0.89632907     0.13600
H626        H  0.84648777  0.68182046  0.85883372     0.13400
H627        H  0.90559473  0.72230546  0.80389650     0.13300
H628        H  0.94157157  0.71361295  0.84130625     0.12300
C629        C  0.73430648  0.89870616  0.85717470     0.18600
C630        C  0.73396759  0.90528096  0.82713922    -0.10500
C631        C  0.73583148  0.88400514  0.80599156    -0.11300
C632        C  0.73802708  0.85593515  0.81465407     0.20200
C633        C  0.73842499  0.84935238  0.84469080    -0.13400
C634        C  0.73655695  0.87064213  0.86585266    -0.11700
C635        C  0.74050888  0.83413027  0.79267107    -0.01200
C636        C  0.74372038  0.81720564  0.77313881    -0.31700
C637        C  0.73241775  0.92069312  0.87902485     0.02500
C638        C  0.73096266  0.93895493  0.89744126    -0.33300
H639        H  0.73230432  0.92684369  0.82006610     0.13600
H640        H  0.73564762  0.88945545  0.78288085     0.13400
H641        H  0.74026135  0.82780052  0.85175056     0.13300
H642        H  0.73690975  0.86522107  0.88896848     0.12300
C643        C  0.73095174  0.13970008  0.81567442     0.18600
C644        C  0.71773139  0.11437935  0.80968630    -0.10500
C645        C  0.71620634  0.09370871  0.83137866    -0.11300
C646        C  0.72791646  0.09813277  0.85927662     0.20200
C647        C  0.74091310  0.12356087  0.86538827    -0.13400
C648        C  0.74244529  0.14424808  0.84367378    -0.11700
C649        C  0.72708770  0.07638911  0.88132717     0.01200
C650        C  0.72677358  0.05799130  0.89954919    -0.31700
C651        C  0.73393048  0.16024356  0.79261573     0.02500
C652        C  0.73784129  0.17591208  0.77224162    -0.33300
H653        H  0.70891736  0.11046198  0.78811760     0.13600
H654        H  0.70615236  0.07416686  0.82629054     0.13400
H655        H  0.75011074  0.12727533  0.88681610     0.13300
H656        H  0.75289185  0.16360919  0.84859644     0.12300
C657        C  0.87534305  0.28088080  0.81732212     0.18600
C658        C  0.88400123  0.30707498  0.82743332    -0.10500
C659        C  0.90550072  0.30889618  0.84797806    -0.11300
C660        C  0.91840860  0.28452811  0.85847764     0.20200
C661        C  0.90989474  0.25836920  0.84815506    -0.13400
C662        C  0.88841770  0.25654990  0.82763249    -0.11700
C663        C  0.93983381  0.28620243  0.88043180     0.01200
C664        C  0.95724531  0.28680826  0.89945635    -0.31700
C665        C  0.85260628  0.27883445  0.79700390     0.02500
C666        C  0.83311891  0.27652583  0.78065953    -0.33300
H667        H  0.87398273  0.32602058  0.81966141     0.13600
H668        H  0.91186685  0.32922938  0.85586990     0.13400
H669        H  0.91967427  0.23939171  0.85618205     0.13300
H670        H  0.88184046  0.23618954  0.82002297     0.12300
C671        C  0.15233254  0.26938193  0.82368161     0.18600
C672        C  0.14741950  0.24801260  0.84394300    -0.10500
C673        C  0.12766913  0.25170822  0.86580446    -0.11300
C674        C  0.11264046  0.27678967  0.86755901     0.20200
C675        C  0.11781765  0.29832246  0.84756675    -0.13400
C676        C  0.13757657  0.29462538  0.82569570    -0.11700
C677        C  0.09135873  0.28002546  0.88922257     0.01200
C678        C  0.07313924  0.28205309  0.90696042    -0.31700
C679        C  0.17121109  0.26475721  0.79981261     0.02500
C680        C  0.18519577  0.26014801  0.77849964    -0.33300
H681        H  0.15851460  0.22832899  0.84253179     0.13600
H682        H  0.12383666  0.23486311  0.88105370     0.13400
H683        H  0.10631199  0.31778593  0.84861165     0.13300
H684        H  0.14100808  0.31125145  0.81006786     0.12300
C685        C  0.29591782  0.11372946  0.79607878     0.18600
C686        C  0.27719711  0.09172157  0.79552580    -0.10500
C687        C  0.28069964  0.06912945  0.81467200    -0.11300
C688        C  0.30294841  0.06842715  0.83442921     0.20200
C689        C  0.32225674  0.08993308  0.83423038    -0.13400
C690        C  0.31876200  0.11253961  0.81504616    -0.11700
C691        C  0.30397809  0.04750181  0.85707554     0.01200
C692        C  0.30192154  0.03206456  0.87781385    -0.31700
C693        C  0.29054237  0.13842326  0.77890362     0.02500
C694        C  0.28552019  0.15986313  0.76598439    -0.33300
H695        H  0.25941076  0.09248969  0.78103896     0.13600
H696        H  0.26549802  0.05276192  0.81485883     0.13400
H697        H  0.33938259  0.08975174  0.84962211     0.13300
H698        H  0.33330914  0.12951289  0.81572156     0.12300
C699        C  0.27622931  0.82174848  0.85507609     0.18600
C700        C  0.30090062  0.83648007  0.85498111    -0.10500
C701        C  0.30395007  0.86009104  0.87266347    -0.11300
C702        C  0.28231536  0.86902239  0.89043272     0.20200
C703        C  0.25796889  0.85374025  0.89137140    -0.13400
C704        C  0.25490090  0.83008669  0.87362340    -0.11700
C705        C  0.28426991  0.89519904  0.90550512     0.01200
C706        C  0.28542443  0.91806964  0.91630489    -0.31700
C707        C  0.27185855  0.80046656  0.83344119     0.02500
C708        C  0.26923752  0.78604394  0.81198994    -0.33300
H709        H  0.31733963  0.83037440  0.84037167     0.13600
H710        H  0.32274336  0.87195263  0.87166182     0.13400
H711        H  0.24106423  0.86068699  0.90493453     0.13300
H712        H  0.23561910  0.81900474  0.87350247     0.12300
C713        C  0.35954186  0.77803082  0.31256971     0.18600
C714        C  0.36753103  0.75579593  0.33085868    -0.10500
C715        C  0.38708735  0.75989099  0.35317742    -0.11300
C716        C  0.39881880  0.78625242  0.35738618     0.20200
C717        C  0.39054477  0.80861131  0.33937081    -0.13400
C718        C  0.37096361  0.80451041  0.31702271    -0.11700
C719        C  0.41993317  0.78996387  0.37954214     0.01200
C720        C  0.43809700  0.79165483  0.39774828    -0.31700
C721        C  0.34068903  0.77325268  0.28842982     0.02500
C722        C  0.32610302  0.76828064  0.26746163    -0.33300
H723        H  0.35896006  0.73520223  0.32757630     0.13600
H724        H  0.39333593  0.74241342  0.36688556     0.13400
H725        H  0.39948663  0.82907588  0.34233312     0.13300
H726        H  0.36505439  0.82184728  0.30295925     0.12300
C727        C  0.25011763  0.56773155  0.34255841     0.18600
C728        C  0.23045394  0.56946685  0.31996424    -0.10500
C729        C  0.23160804  0.59113070  0.29953163    -0.11300
C730        C  0.25241804  0.61100750  0.30174738     0.20200
C731        C  0.27275526  0.60855078  0.32357008    -0.13400
C732        C  0.27160716  0.58689679  0.34398198    -0.11700
C733        C  0.25131424  0.63542137  0.28367790     0.01200
C734        C  0.24924761  0.65704981  0.27048519    -0.31700
C735        C  0.24633600  0.54873307  0.36635746     0.02500
C736        C  0.24220290  0.53566038  0.38832774    -0.33300
H737        H  0.21361258  0.55487000  0.31893597     0.13600
H738        H  0.21568989  0.59305343  0.28282046     0.13400
H739        H  0.28878654  0.62399590  0.32553894     0.13300
H740        H  0.28671997  0.58583815  0.36160823     0.12300
C741        C  0.40966987  0.60342004  0.16144226     0.18600
C742        C  0.41156647  0.62108925  0.18595312    -0.10500
C743        C  0.39250733  0.64275847  0.18966547    -0.11300
C744        C  0.37146995  0.64686427  0.16886916     0.20200
C745        C  0.36977322  0.62945995  0.14410703    -0.13400
C746        C  0.38886695  0.60773825  0.14039206    -0.11700
C747        C  0.35132611  0.66851519  0.17345995     0.01200
C748        C  0.33464112  0.68656996  0.17852460    -0.31700
C749        C  0.42848673  0.58027563  0.15879770     0.02500
C750        C  0.44448024  0.56093766  0.15917067    -0.33300
H751        H  0.42754341  0.61786456  0.20238805     0.13600
H752        H  0.39397446  0.65608674  0.20889900     0.13400
H753        H  0.35354826  0.63247337  0.12791750     0.13300
H754        H  0.38719802  0.59413322  0.12139905     0.12300
C755        C  0.25953284  0.88570211  0.12032762     0.18600
C756        C  0.28357595  0.90099831  0.11652210    -0.10500
C757        C  0.28497065  0.92086811  0.09415870    -0.11300
C758        C  0.26233017  0.92550366  0.07552299     0.20200
C759        C  0.23795646  0.91087657  0.07993009    -0.13400
C760        C  0.23655913  0.89098045  0.10232628    -0.11700
C761        C  0.26505046  0.94335485  0.05040675     0.01200
C762        C  0.26887930  0.95648599  0.02830999    -0.31700
C763        C  0.25946507  0.86282139  0.14068877     0.02500
C764        C  0.26101295  0.84217964  0.15570848    -0.33300
H765        H  0.30152258  0.89688559  0.13016742     0.13600
H766        H  0.30397209  0.93192341  0.09077599     0.13400
H767        H  0.22040364  0.91417469  0.06548394     0.13300
H768        H  0.21794950  0.87907754  0.10495048     0.12300
C769        C  0.11381775  0.70756568  0.07078382     0.18600
C770        C  0.12921498  0.68569560  0.08344123    -0.10500
C771        C  0.14807364  0.69125220  0.10614124    -0.11300
C772        C  0.15161273  0.71870423  0.11626077     0.20200
C773        C  0.13631540  0.74053440  0.10348418    -0.13400
C774        C  0.11749681  0.73499028  0.08083922    -0.11700
C775        C  0.17020913  0.72456729  0.14031216     0.01200
C776        C  0.18460690  0.73045187  0.16113626    -0.31700
C777        C  0.09387745  0.70204252  0.04787619     0.02500
C778        C  0.07647932  0.69878040  0.02910183    -0.33300
H779        H  0.12651014  0.66439221  0.07591996     0.13600
H780        H  0.15969489  0.67417174  0.11593103     0.13400
H781        H  0.13877325  0.76181329  0.11119680     0.13300
H782        H  0.10567772  0.75206559  0.07130780     0.12300
C783        C  0.76753686  0.63491688  0.31166190     0.18600
C784        C  0.79088659  0.63491138  0.32997664    -0.10500
C785        C  0.79389040  0.61496295  0.35238577    -0.11300
C786        C  0.77358022  0.59482784  0.35666172     0.20200
C787        C  0.75019032  0.59493304  0.33841655    -0.13400
C788        C  0.74718853  0.61486086  0.31603539    -0.11700
C789        C  0.77665935  0.57403273  0.37961541     0.01200
C790        C  0.77856159  0.55642231  0.39865340    -0.31700
C791        C  0.76466111  0.65493034  0.28794740     0.02500
C792        C  0.76165154  0.67048198  0.26716109    -0.33300
H793        H  0.80682502  0.65020743  0.32683579     0.13600
H794        H  0.81207908  0.61518038  0.36628565     0.13400
H795        H  0.73431297  0.57954179  0.34141891     0.13300
H796        H  0.72906656  0.61452288  0.30203231     0.12300
C797        C  0.58531393  0.78139481  0.34521760     0.18600
C798        C  0.60244575  0.75775524  0.34463476    -0.10500
C799        C  0.62206030  0.75484963  0.32268746    -0.11300
C800        C  0.62457989  0.77555584  0.30121727     0.20200
C801        C  0.60707484  0.79896060  0.30140304    -0.13400
C802        C  0.58741012  0.80187044  0.32339969    -0.11700
C803        C  0.64629582  0.77345492  0.28026625     0.01200
C804        C  0.66603948  0.77135155  0.26474683    -0.31700
C805        C  0.56635435  0.78490892  0.36887444     0.02500
C806        C  0.55118628  0.78697055  0.38946756    -0.33300
H807        H  0.60096837  0.74184022  0.36144160     0.13600
H808        H  0.63561711  0.73675851  0.32279890     0.13400
H809        H  0.60899326  0.81514761  0.28495295     0.13300
H810        H  0.57423219  0.82023952  0.32370849     0.12300
C811        C  0.59765752  0.59428396  0.16740499     0.18600
C812        C  0.62523061  0.58566902  0.16768262    -0.10500
C813        C  0.64614590  0.60541220  0.17012755    -0.11300
C814        C  0.63968809  0.63395497  0.17232036     0.20200
C815        C  0.61210432  0.64262690  0.17188343    -0.13400
C816        C  0.59115469  0.62285120  0.16943238    -0.11700
C817        C  0.66142940  0.65407441  0.17572871     0.01200
C818        C  0.68046565  0.66976221  0.17945286    -0.31700
C819        C  0.57615960  0.57373134  0.16582412     0.02500
C820        C  0.55840944  0.55625385  0.16550388    -0.33300
H821        H  0.63055839  0.56367440  0.16624428     0.13600
H822        H  0.66735578  0.59839837  0.17053856     0.13400
H823        H  0.60679931  0.66460281  0.17366036     0.13300
H824        H  0.56992694  0.62980545  0.16935278     0.12300
C825        C  0.92780523  0.70877446  0.07951390     0.18600
C826        C  0.91840271  0.73531673  0.08806905    -0.10500
C827        C  0.89751218  0.73786847  0.10879657    -0.11300
C828        C  0.88598206  0.71389011  0.12103661     0.20200
C829        C  0.89597072  0.68740383  0.11313707    -0.13400
C830        C  0.91684641  0.68485453  0.09243122    -0.11700
C831        C  0.86249791  0.71633835  0.13978815     0.01200
C832        C  0.84154316  0.71840861  0.15348772    -0.31700
C833        C  0.94757325  0.70593548  0.05639636     0.02500
C834        C  0.96333844  0.70305246  0.03634643    -0.33300
H835        H  0.92671334  0.75395505  0.07819574     0.13600
H836        H  0.88984380  0.75845065  0.11465313     0.13400
H837        H  0.88710983  0.66873041  0.12235726     0.13300
H838        H  0.92394628  0.66423759  0.08594733     0.12300
C839        C  0.73731275  0.85556863  0.10394424     0.18600
C840        C  0.73151527  0.84834493  0.07464886    -0.10500
C841        C  0.72869381  0.86922770  0.05320641    -0.11300
C842        C  0.73164949  0.89745601  0.06092190     0.20200
C843        C  0.73738677  0.90463849  0.09022320    -0.13400
C844        C  0.74020473  0.88379352  0.11162670    -0.11700
C845        C  0.72931435  0.91903271  0.03881048     0.01200
C846        C  0.72810830  0.93732180  0.02051463    -0.31700
C847        C  0.74044742  0.83428621  0.12626920     0.02500
C848        C  0.74360408  0.81827614  0.14658955    -0.33300
H849        H  0.72925083  0.82662789  0.06838360     0.13600
H850        H  0.72432451  0.86336640  0.03062974     0.13400
H851        H  0.73979259  0.92633863  0.09650405     0.13300
H852        H  0.74471069  0.88968536  0.13416954     0.12300
C853        C  0.63264086  0.21312681  0.31692694     0.18600
C854        C  0.62458755  0.23627878  0.33379158    -0.10500
C855        C  0.60376329  0.23374914  0.35454296    -0.11300
C856        C  0.59081612  0.20803824  0.35863264     0.20200
C857        C  0.59887297  0.18483554  0.34179165    -0.13400
C858        C  0.61973748  0.18736931  0.32100454    -0.11700
C859        C  0.56930843  0.20568470  0.38008314     0.01200
C860        C  0.55142242  0.20511171  0.39828518    -0.31700
C861        C  0.65434412  0.21587652  0.29579048     0.02500
C862        C  0.67301084  0.21884549  0.27883741    -0.33300
H863        H  0.63443341  0.25627766  0.33092772     0.13600
H864        H  0.59776451  0.25184459  0.36740785     0.13400
H865        H  0.58905785  0.16483530  0.34473234     0.13300
H866        H  0.62581658  0.16928155  0.30817317     0.12300
C867        C  0.77288264  0.35895041  0.31319047     0.18600
C868        C  0.77188690  0.35104989  0.34284425    -0.10500
C869        C  0.77486508  0.37114696  0.36513891    -0.11300
C870        C  0.77884918  0.39932123  0.35797251     0.20200
C871        C  0.77997281  0.40717035  0.32832511    -0.13400
C872        C  0.77699992  0.38709704  0.30605716    -0.11700
C873        C  0.78111955  0.42027842  0.38088468     0.01200
C874        C  0.78222110  0.43818730  0.39971336    -0.31700
C875        C  0.76893577  0.33849643  0.29003591     0.02500
C876        C  0.76466183  0.32260897  0.26976662    -0.33300
H877        H  0.76860124  0.32942239  0.34872590     0.13600
H878        H  0.77385137  0.36475115  0.38793240     0.13400
H879        H  0.78293716  0.42884480  0.32241352     0.13300
H880        H  0.77769847  0.39356932  0.28326716     0.12300
C881        C  0.59274372  0.39949075  0.18476871     0.18600
C882        C  0.61975485  0.40574634  0.17713667    -0.10500
C883        C  0.64030566  0.38527206  0.17941218    -0.11300
C884        C  0.63396237  0.35842333  0.18931662     0.20200
C885        C  0.60695635  0.35214123  0.19703907    -0.13400
C886        C  0.58636337  0.37265556  0.19475461    -0.11700
C887        C  0.65537259  0.33761518  0.19176065     0.01200
C888        C  0.67462055  0.32169333  0.19374299    -0.31700
C889        C  0.57167410  0.42063120  0.18211217     0.02500
C890        C  0.55453310  0.43879539  0.17938095    -0.33300
H891        H  0.62491089  0.42642280  0.16940183     0.13600
H892        H  0.66113554  0.39037073  0.17346398     0.13400
H893        H  0.60184879  0.33146549  0.20480284     0.13300
H894        H  0.56552910  0.36760921  0.20072126     0.12300
C895        C  0.72672967  0.09394085  0.06555103     0.18600
C896        C  0.71398471  0.12020968  0.06235073    -0.10500
C897        C  0.71694464  0.14064190  0.08431873    -0.11300
C898        C  0.73268381  0.13497109  0.10966083     0.20200
C899        C  0.74523728  0.10863159  0.11292074    -0.13400
C900        C  0.74227910  0.08823394  0.09099306    -0.11700
C901        C  0.73620565  0.15599741  0.13232388     0.01200
C902        C  0.74025083  0.17222576  0.15234895    -0.31700
C903        C  0.72460052  0.07310547  0.04250766     0.02500
C904        C  0.72409138  0.05554726  0.02329329    -0.33300
H905        H  0.70194943  0.12496794  0.04279930     0.13600
H906        H  0.70710026  0.16086802  0.08146837     0.13400
H907        H  0.75744833  0.10390528  0.13236169     0.13300
H908        H  0.75230104  0.06808432  0.09378223     0.12300
C909        C  0.87168386  0.28247733  0.10545716     0.18600
C910        C  0.86957304  0.30305978  0.08361799    -0.10500
C911        C  0.89017045  0.30557219  0.06256196    -0.11300
C912        C  0.91299918  0.28751036  0.06323300     0.20200
C913        C  0.91521774  0.26711963  0.08524052    -0.13400
C914        C  0.89463593  0.26460631  0.10627533    -0.11700
C915        C  0.93391742  0.28940172  0.04112276     0.01200
C916        C  0.95175075  0.28973011  0.02288640    -0.31700
C917        C  0.84995735  0.27916434  0.12644101     0.02500
C918        C  0.83118525  0.27609276  0.14322334    -0.33300
H919        H  0.85190160  0.31696609  0.08270344     0.13600
H920        H  0.88818429  0.32140107  0.04565552     0.13400
H921        H  0.93274071  0.25301084  0.08598253     0.13300
H922        H  0.89649230  0.24857434  0.12298376     0.12300
C923        C  0.23204744  0.34917086  0.33866372     0.18600
C924        C  0.21590746  0.34413782  0.36336945    -0.10500
C925        C  0.21542051  0.36346243  0.38644331    -0.11300
C926        C  0.23113198  0.38773117  0.38478345     0.20200
C927        C  0.24732074  0.39265999  0.36012113    -0.13400
C928        C  0.24779821  0.37338527  0.33709593    -0.11700
C929        C  0.22996200  0.40831284  0.40763793     0.01200
C930        C  0.22927834  0.42771301  0.42441592    -0.31700
C931        C  0.23252663  0.32959712  0.31482788     0.02500
C932        C  0.23346198  0.31330196  0.29473762    -0.33300
H933        H  0.20365813  0.32541942  0.36470594     0.13600
H934        H  0.20270591  0.35961981  0.40537945     0.13400
H935        H  0.25938351  0.41149600  0.35860486     0.13300
H936        H  0.26031728  0.37740613  0.31804566     0.12300
C937        C  0.39819948  0.20241249  0.35428529     0.18600
C938        C  0.40452538  0.19069565  0.32687121    -0.10500
C939        C  0.38571478  0.19276733  0.30347680    -0.11300
C940        C  0.36049284  0.20652580  0.30743345     0.20200
C941        C  0.35383708  0.21744130  0.33509603    -0.13400
C942        C  0.37263138  0.21538286  0.35846053    -0.11700
C943        C  0.34250696  0.21175999  0.28268769     0.01200
C944        C  0.32810534  0.21906157  0.26233065    -0.31700
C945        C  0.41845635  0.20259630  0.37758837     0.02500
C946        C  0.43568902  0.20385950  0.39677908    -0.33300
H947        H  0.42425173  0.18065435  0.32337353     0.13600
H948        H  0.39115747  0.18440189  0.28214169     0.13400
H949        H  0.33447485  0.22828049  0.33836097     0.13300
H950        H  0.36752923  0.22456015  0.37952866     0.12300
C951        C  0.36246037  0.36359835  0.19359982     0.18600
C952        C  0.35417499  0.39005970  0.18347490    -0.10500
C953        C  0.37376676  0.41059281  0.17795159    -0.11300
C954        C  0.40176087  0.40476168  0.18245646     0.20200
C955        C  0.41000492  0.37832679  0.19265158    -0.13400
C956        C  0.39044083  0.35782614  0.19817526    -0.11700
C957        C  0.42205133  0.42589943  0.17710148     0.01200
C958        C  0.43956527  0.44328968  0.17379908    -0.31700
C959        C  0.34251718  0.34198444  0.19830391     0.02500
C960        C  0.32701091  0.32262206  0.20095766    -0.33300
H961        H  0.33263078  0.39475711  0.17970552     0.13600
H962        H  0.36710331  0.43095772  0.17014719     0.13400
H963        H  0.43155426  0.37355392  0.19629585     0.13300
H964        H  0.39714368  0.33742643  0.20585164     0.12300
C965        C  0.10417312  0.28168473  0.07284056     0.18600
C966        C  0.12464059  0.26102158  0.07084784    -0.10500
C967        C  0.14426926  0.25804780  0.09329603    -0.11300
C968        C  0.14357981  0.27573035  0.11788067     0.20200
C969        C  0.12322619  0.29654760  0.11981477    -0.13400
C970        C  0.10356539  0.29953192  0.09732051    -0.11700
C971        C  0.16300346  0.27147752  0.14159411     0.01200
C972        C  0.17870886  0.26550595  0.16133567    -0.31700
C973        C  0.08367057  0.28417231  0.04991717     0.02500
C974        C  0.06678428  0.28529033  0.03035465    -0.33300
H975        H  0.12528604  0.24707021  0.05206511     0.13600
H976        H  0.15979070  0.24176145  0.09164468     0.13400
H977        H  0.12237942  0.31022315  0.13880558     0.13300
H978        H  0.08780088  0.31555295  0.09912300     0.12300
C979        C  0.27782033  0.13915633  0.08394743     0.18600
C980        C  0.25440354  0.13384626  0.06681757    -0.10500
C981        C  0.25628527  0.11636943  0.04230784    -0.11300
C982        C  0.28159872  0.10434024  0.03493098     0.20200
C983        C  0.30500688  0.10972930  0.05202048    -0.13400
C984        C  0.30312562  0.12718200  0.07651397    -0.11700
C985        C  0.28317887  0.08464999  0.01134779     0.01200
C986        C  0.28431770  0.06564152  0.99417683    -0.31700
C987        C  0.27607672  0.15738544  0.10879075     0.02500
C988        C  0.27507799  0.17359690  0.12890572    -0.33300
H989        H  0.23476700  0.14310671  0.07246438     0.13600
H990        H  0.23802689  0.11195905  0.02937442     0.13400
H991        H  0.32457303  0.10016634  0.04663225     0.13300
H992        H  0.32131586  0.13126208  0.08968354     0.12300
C993        C  0.14000662  0.85469134  0.25408218     0.18600
C994        C  0.11791959  0.85291782  0.27341163    -0.10500
C995        C  0.09751628  0.87365442  0.27321933    -0.11300
C996        C  0.09918560  0.89613549  0.25366996     0.20200
C997        C  0.12160291  0.89822277  0.23483192    -0.13400
C998        C  0.14198550  0.87751351  0.23502813    -0.11700
C999        C  0.07750235  0.91658273  0.25215389     0.01200
C1000       C  0.05951488  0.93387428  0.25006152    -0.31700
C1001       C  0.15982443  0.83240398  0.25245520     0.02500
C1002       C  0.17616481  0.81374416  0.24887013    -0.33300
H1003       H  0.11620263  0.83528179  0.28815516     0.13600
H1004       H  0.08024095  0.87190924  0.28787900     0.13400
H1005       H  0.12305494  0.91555810  0.21965544     0.13300
H1006       H  0.15896703  0.87899226  0.21993882     0.12300
C1007       C  0.86471589  0.85856221  0.24054453     0.18600
C1008       C  0.86352140  0.87852590  0.26313726    -0.10500
C1009       C  0.88387747  0.89889488  0.26571388    -0.11300
C1010       C  0.90554622  0.89944106  0.24569678     0.20200
C1011       C  0.90683628  0.87934555  0.22325546    -0.13400
C1012       C  0.88649824  0.85899611  0.22068030    -0.11700
C1013       C  0.92617475  0.92084845  0.24768116     0.01200
C1014       C  0.94370890  0.93853630  0.24791979    -0.31700
C1015       C  0.84317419  0.83825904  0.23711918     0.02500
C1016       C  0.82453649  0.82210028  0.23343884    -0.33300
H1017       H  0.84673968  0.87850484  0.27856987     0.13600
H1018       H  0.88259553  0.91432495  0.28312514     0.13400
H1019       H  0.92343624  0.87955446  0.20760086     0.13300
H1020       H  0.88762096  0.84377778  0.20304911     0.12300
C1021       C  0.87100362  0.13816747  0.23155393     0.18600
C1022       C  0.88912997  0.13665266  0.25563375    -0.10500
C1023       C  0.90977219  0.11611609  0.25641878    -0.11300
C1024       C  0.91231021  0.09704294  0.23314285     0.20200
C1025       C  0.89432996  0.09873735  0.20898087    -0.13400
C1026       C  0.87372262  0.11924458  0.20819459    -0.11700
C1027       C  0.93280463  0.07523703  0.23436384     0.01200
C1028       C  0.94944092  0.05647468  0.23566974    -0.31700
C1029       C  0.84901732  0.15843611  0.23103890     0.02500
C1030       C  0.82948472  0.17402897  0.22958373    -0.33300
H1031       H  0.88713190  0.15111525  0.27386510     0.13600
H1032       H  0.92353642  0.11492425  0.27525139     0.13400
H1033       H  0.89606528  0.08404379  0.19091984     0.13300
H1034       H  0.85973770  0.12016776  0.18953056     0.12300
C1035       C  0.10526026  0.08443527  0.23148872     0.18600
C1036       C  0.10166918  0.11122720  0.24334938    -0.10500
C1037       C  0.12231023  0.13108362  0.24071504    -0.11300
C1038       C  0.14670428  0.12430732  0.22620224     0.20200
C1039       C  0.15038170  0.09749270  0.21430659    -0.13400
C1040       C  0.12967374  0.07757114  0.21695086    -0.11700
C1041       C  0.16760303  0.14517995  0.22352198     0.01200
C1042       C  0.18334016  0.16442772  0.22237330    -0.31700
C1043       C  0.08369657  0.06425878  0.23413463     0.02500
C1044       C  0.06503884  0.04806491  0.23648540    -0.33300
H1045       H  0.08288397  0.11678464  0.25457778     0.13600
H1046       H  0.11922452  0.15175920  0.24994649     0.13400
H1047       H  0.16914462  0.09203679  0.20298994     0.13300
H1048       H  0.13265491  0.05691551  0.20764283     0.12300
loop_ 
_geom_bond_atom_site_label_1 
_geom_bond_atom_site_label_2 
_geom_bond_distance 
_geom_bond_site_symmetry_2 
_ccdc_geom_bond_type 
O1           Ni9   1.916       .  S
O1           C11   1.280       .  A
O2           Ni9   1.919   1_645  S
O2           C12   1.280       .  A
O3           Ni9   1.915   1_545  S
O3           C13   1.279       .  A
O4           Ni9   1.917   1_655  S
O4           C14   1.279       .  A
O5          Ni10   1.925   1_655  S
O5           C14   1.281       .  A
O6          Ni10   1.922   1_545  S
O6           C13   1.281       .  A
O7          Ni10   1.913   1_645  S
O7           C12   1.279       .  A
O8          Ni10   1.911       .  S
O8           C11   1.278       .  A
Ni9         Ni10   2.394       .  S
C11        C1000   1.429       .  S
C12        C1028   1.433       .  S
C13        C1044   1.436       .  S
C14        C1014   1.439       .  S
O15         Ni21   1.928       .  S
O15          C36   1.269       .  A
O16         Ni39   1.888       .  S
O16          C25   1.260       .  A
O17         Ni21   1.926       .  S
O17         Ni39   1.906       .  S
O17         Ni33   1.913       .  S
O17          H40   0.966       .  S
C18          O35   1.270       .  A
C18          O27   1.272       .  A
C18         C960   1.439       .  S
O19         Ni38   1.928       .  S
O19          C25   1.268       .  A
O20         Ni38   1.907       .  S
O20          C22   1.267       .  A
Ni21         O24   1.927       .  S
Ni21         O26   1.908       .  S
C22          O32   1.271       .  A
C22         C944   1.435       .  S
O23         Ni39   1.909       .  S
O23          C29   1.269       .  A
O24          C29   1.272       .  A
C25         C988   1.424       .  S
O26          C28   1.267       .  A
O27         Ni38   1.929       .  S
C28          O34   1.270       .  A
C28         C972   1.436       .  S
C29        C1042   1.435       .  S
H30          O31   0.966       .  S
O31         Ni39   1.915       .  S
O31         Ni33   1.910       .  S
O31         Ni38   1.928       .  S
O32         Ni33   1.930       .  S
Ni33         O37   1.894       .  S
Ni33         O35   1.914       .  S
O34         Ni39   1.928       .  S
C36          O37   1.262       .  A
C36         C932   1.426       .  S
O41         Ni47   1.937       .  S
O41          C62   1.271       .  A
O42         Ni65   1.904       .  S
O42          C51   1.265       .  A
O43         Ni47   1.920       .  S
O43         Ni65   1.910       .  S
O43         Ni59   1.909       .  S
O43          H66   0.966       .  S
C44          O61   1.271       .  A
C44          O53   1.274       .  A
C44         C888   1.434       .  S
O45         Ni64   1.937       .  S
O45          C51   1.271       .  A
O46         Ni64   1.912       .  S
O46          C48   1.269       .  A
Ni47         O50   1.927       .  S
Ni47         O52   1.912       .  S
C48          O58   1.273       .  A
C48         C876   1.444       .  S
O49         Ni65   1.911       .  S
O49          C55   1.272       .  A
O50          C55   1.274       .  A
C51         C918   1.439       .  S
O52          C54   1.268       .  A
O53         Ni64   1.927       .  S
C54          O60   1.273       .  A
C54         C902   1.444       .  S
C55        C1030   1.433       .  S
H56          O57   0.966       .  S
O57         Ni65   1.912       .  S
O57         Ni59   1.913       .  S
O57         Ni64   1.922       .  S
O58         Ni59   1.937       .  S
Ni59         O63   1.905       .  S
Ni59         O61   1.910       .  S
O60         Ni65   1.936       .  S
C62          O63   1.265       .  A
C62         C862   1.439       .  S
O67         Ni73   1.938       .  S
O67          C88   1.272       .  A
O68         Ni91   1.894       .  S
O68          C77   1.263       .  A
O69         Ni73   1.923       .  S
O69         Ni91   1.908       .  S
O69         Ni85   1.915       .  S
O69          H92   0.966       .  S
C70          O87   1.271       .  A
C70          O79   1.274       .  A
C70        C1016   1.440       .  S
O71         Ni90   1.934       .  S
O71          C77   1.270       .  A
O72         Ni90   1.907       .  S
O72          C74   1.267       .  A
Ni73         O76   1.932       .  S
Ni73         O78   1.911       .  S
C74          O84   1.272       .  A
C74         C848   1.440       .  S
O75         Ni91   1.915       .  S
O75          C81   1.271       .  A
O76          C81   1.274       .  A
C77         C804   1.429       .  S
O78          C80   1.268       .  A
O79         Ni90   1.932       .  S
C80          O86   1.272       .  A
C80         C792   1.443       .  S
C81         C818   1.441       .  S
H82          O83   0.966       .  S
O83         Ni91   1.914       .  S
O83         Ni85   1.908       .  S
O83         Ni90   1.923       .  S
O84         Ni85   1.937       .  S
Ni85         O89   1.896       .  S
Ni85         O87   1.914       .  S
O86         Ni91   1.935       .  S
C88          O89   1.263       .  A
C88         C832   1.434       .  S
O93         Ni99   1.929       .  S
O93         C114   1.270       .  A
O94        Ni117   1.890       .  S
O94         C103   1.262       .  A
O95         Ni99   1.925       .  S
O95        Ni117   1.904       .  S
O95        Ni111   1.911       .  S
O95         H118   0.967       .  S
C96         O113   1.262       .  A
C96         O105   1.270       .  A
C96        C1002   1.429       .  S
O97        Ni116   1.925       .  S
O97         C103   1.269       .  A
O98        Ni116   1.903       .  S
O98         C100   1.268       .  A
Ni99        O102   1.937       .  S
Ni99        O104   1.906       .  S
C100        O110   1.276       .  A
C100        C776   1.437       .  S
O101       Ni117   1.898       .  S
O101        C107   1.264       .  A
O102        C107   1.271       .  A
C103        C734   1.425       .  S
O104        C106   1.269       .  A
O105       Ni116   1.935       .  S
C106        O112   1.275       .  A
C106        C722   1.438       .  S
C107        C748   1.432       .  S
H108        O109   0.967       .  S
O109       Ni117   1.915       .  S
O109       Ni111   1.906       .  S
O109       Ni116   1.927       .  S
O110       Ni111   1.946       .  S
Ni111       O115   1.895       .  S
Ni111       O113   1.894       .  S
O112       Ni117   1.945       .  S
C114        O115   1.263       .  A
C114        C764   1.431       .  S
O119       Ni127   1.911       .  S
O119        C129   1.278       .  A
O120       Ni127   1.909   1_545  S
O120        C130   1.278       .  A
O121       Ni127   1.916       .  S
O121        C131   1.280   1_556  A
O122       Ni127   1.919   1_545  S
O122        C132   1.280       .  A
O123       Ni128   1.914   1_545  S
O123        C132   1.279       .  A
O124       Ni128   1.915       .  S
O124        C131   1.279   1_556  A
O125       Ni128   1.908   1_545  S
O125        C130   1.278       .  A
O126       Ni128   1.909       .  S
O126        C129   1.278       .  A
Ni127      Ni128   2.396       .  S
C129        C706   1.425       .  S
C130        C986   1.423       .  S
C131        C762   1.431       .  S
C132        C692   1.433       .  S
O133       Ni141   1.923   1_655  S
O133        C143   1.281   1_556  A
O134       Ni141   1.924       .  S
O134        C144   1.281       .  A
O135       Ni141   1.919   1_655  S
O135        C145   1.280       .  A
O136       Ni141   1.919       .  S
O136        C146   1.280   1_556  A
O137       Ni142   1.917       .  S
O137        C146   1.280   1_556  A
O138       Ni142   1.917   1_655  S
O138        C145   1.280       .  A
O139       Ni142   1.920       .  S
O139        C144   1.280       .  A
O140       Ni142   1.919   1_655  S
O140        C143   1.280   1_556  A
Ni141      Ni142   2.393       .  S
C143        C916   1.438       .  S
C144        C678   1.440       .  S
C145        C664   1.435       .  S
C146        C974   1.436       .  S
O147       Ni155   1.925   1_545  S
O147        C157   1.281       .  A
O148       Ni155   1.924       .  S
O148        C158   1.281       .  A
O149       Ni155   1.927   1_545  S
O149        C159   1.282   1_556  A
O150       Ni155   1.926       .  S
O150        C160   1.282       .  A
O151       Ni156   1.923       .  S
O151        C160   1.281       .  A
O152       Ni156   1.922   1_545  S
O152        C159   1.281   1_556  A
O153       Ni156   1.921       .  S
O153        C158   1.280       .  A
O154       Ni156   1.923   1_545  S
O154        C157   1.281       .  A
Ni155      Ni156   2.391       .  S
C157        C650   1.443       .  S
C158        C846   1.441   1_556  S
C159        C904   1.444       .  S
C160        C638   1.444       .  S
O161       Ni169   1.924   1_554  S
O161        C171   1.281       .  A
O162       Ni169   1.927   1_655  S
O162        C172   1.281       .  A
O163       Ni169   1.922       .  S
O163        C173   1.280       .  A
O164       Ni169   1.919   1_654  S
O164        C174   1.280       .  A
O165       Ni170   1.916   1_655  S
O165        C174   1.279   1_556  A
O166       Ni170   1.915       .  S
O166        C173   1.279       .  A
O167       Ni170   1.920   1_655  S
O167        C172   1.280       .  A
O168       Ni170   1.918       .  S
O168        C171   1.280   1_556  A
Ni169      Ni170   2.393       .  S
C171        C778   1.438       .  S
C172        C624   1.442       .  S
C173        C608   1.436       .  S
C174        C834   1.434       .  S
O175       Ni181   1.928       .  S
O175        C196   1.269       .  A
O176       Ni199   1.894       .  S
O176        C185   1.264       .  A
O177       Ni181   1.913       .  S
O177       Ni199   1.899       .  S
O177       Ni193   1.910       .  S
O177        H200   0.966       .  S
C178        O195   1.272       .  A
C178        O187   1.276       .  A
C178        C610   1.436       .  S
O179       Ni198   1.935       .  S
O179        C185   1.271       .  A
O180       Ni198   1.912       .  S
O180        C182   1.268       .  A
Ni181       O184   1.925       .  S
Ni181       O186   1.910       .  S
C182        O192   1.272       .  A
C182        C594   1.444       .  S
O183       Ni199   1.911       .  S
O183        C189   1.273       .  A
O184        C189   1.275       .  A
C185        C552   1.429       .  S
O186        C188   1.267       .  A
O187       Ni198   1.933       .  S
C188        O194   1.273       .  A
C188        C580   1.445       .  S
C189        C566   1.430       .  S
H190        O191   0.966       .  S
O191       Ni199   1.910       .  S
O191       Ni193   1.901       .  S
O191       Ni198   1.915       .  S
O192       Ni193   1.936       .  S
Ni193       O197   1.895       .  S
Ni193       O195   1.910       .  S
O194       Ni199   1.938       .  S
C196        O197   1.263       .  A
C196        C708   1.425       .  S
O201       Ni209   1.915   1_655  S
O201        C211   1.279       .  A
O202       Ni209   1.913   1_545  S
O202        C212   1.279       .  A
O203       Ni209   1.926   1_645  S
O203        C213   1.281       .  A
O204       Ni209   1.925       .  S
O204        C214   1.281       .  A
O205       Ni210   1.926       .  S
O205        C214   1.281       .  A
O206       Ni210   1.927   1_645  S
O206        C213   1.282       .  A
O207       Ni210   1.915   1_545  S
O207        C212   1.279       .  A
O208       Ni210   1.916   1_655  S
O208        C211   1.279       .  A
Ni209      Ni210   2.393       .  S
C211        C510   1.432       .  S
C212        C538   1.430       .  S
C213        C526   1.446       .  S
C214        C596   1.445       .  S
O215       Ni221   1.932       .  S
O215        C236   1.270       .  A
O216       Ni239   1.895       .  S
O216        C225   1.263       .  A
O217       Ni221   1.914       .  S
O217       Ni239   1.902       .  S
O217       Ni233   1.905       .  S
O217        H240   0.966       .  S
C218        O235   1.270       .  A
C218        O227   1.274       .  A
C218        C540   1.431       .  S
O219       Ni238   1.937       .  S
O219        C225   1.271       .  A
O220       Ni238   1.907       .  S
O220        C222   1.268       .  A
Ni221       O224   1.924       .  S
Ni221       O226   1.909       .  S
C222        O232   1.274       .  A
C222        C680   1.441       .  S
O223       Ni239   1.911       .  S
O223        C229   1.272       .  A
O224        C229   1.274       .  A
C225        C482   1.432       .  S
O226        C228   1.267       .  A
O227       Ni238   1.929       .  S
C228        O234   1.272       .  A
C228        C468   1.442       .  S
C229        C498   1.431       .  S
H230        O231   0.966       .  S
O231       Ni239   1.909       .  S
O231       Ni233   1.910       .  S
O231       Ni238   1.918       .  S
O232       Ni233   1.939       .  S
Ni233       O237   1.904       .  S
Ni233       O235   1.905       .  S
O234       Ni239   1.935       .  S
C236        O237   1.266       .  A
C236        C694   1.433       .  S
O241       Ni247   1.936       .  S
O241        C262   1.271       .  A
O242       Ni265   1.901       .  S
O242        C251   1.266       .  A
O243       Ni247   1.920       .  S
O243       Ni265   1.908       .  S
O243       Ni259   1.918       .  S
O243        H266   0.966       .  S
C244        O261   1.274       .  A
C244        O253   1.276       .  A
C244        C524   1.446       .  S
O245       Ni264   1.941       .  S
O245        C251   1.273       .  A
O246       Ni264   1.913       .  S
O246        C248   1.269       .  A
Ni247       O250   1.930       .  S
Ni247       O252   1.912       .  S
C248        O258   1.272       .  A
C248        C652   1.443       .  S
O249       Ni265   1.924       .  S
O249        C255   1.275       .  A
O250        C255   1.275       .  A
C251        C440   1.437       .  S
O252        C254   1.269       .  A
O253       Ni264   1.936       .  S
C254        O260   1.273       .  A
C254        C426   1.444       .  S
C255        C456   1.445       .  S
H256        O257   0.966       .  S
O257       Ni265   1.916       .  S
O257       Ni259   1.906       .  S
O257       Ni264   1.919       .  S
O258       Ni259   1.935       .  S
Ni259       O263   1.900       .  S
Ni259       O261   1.922       .  S
O260       Ni265   1.937       .  S
C262        O263   1.264       .  A
C262        C666   1.434       .  S
O267       Ni273   1.939       .  S
O267        C288   1.271       .  A
O268       Ni291   1.913       .  S
O268        C277   1.267       .  A
O269       Ni273   1.928       .  S
O269       Ni291   1.919       .  S
O269       Ni285   1.910       .  S
O269        H292   0.966       .  S
C270        O287   1.266       .  A
C270        O279   1.271       .  A
C270        C412   1.432       .  S
O271       Ni290   1.933       .  S
O271        C277   1.270       .  A
O272       Ni290   1.912       .  S
O272        C274   1.269       .  A
Ni273       O276   1.927       .  S
Ni273       O278   1.910       .  S
C274        O284   1.274       .  A
C274        C398   1.443       .  S
O275       Ni291   1.905       .  S
O275        C281   1.268       .  A
O276        C281   1.272       .  A
C277        C622   1.444       .  S
O278        C280   1.269       .  A
O279       Ni290   1.932       .  S
C280        O286   1.275       .  A
C280        C636   1.443       .  S
C281        C512   1.431       .  S
H282        O283   0.966       .  S
O283       Ni291   1.915       .  S
O283       Ni285   1.917       .  S
O283       Ni290   1.930       .  S
O284       Ni285   1.941       .  S
Ni285       O289   1.908       .  S
Ni285       O287   1.901       .  S
O286       Ni291   1.942       .  S
C288        O289   1.265       .  A
C288        C386   1.445       .  S
O293       Ni301   1.913       .  S
O293        C303   1.278       .  A
O294       Ni301   1.912       .  S
O294        C304   1.278       .  A
O295       Ni301   1.926       .  S
O295        C305   1.281       .  A
O296       Ni301   1.925       .  S
O296        C306   1.281       .  A
O297       Ni302   1.926       .  S
O297        C306   1.281       .  A
O298       Ni302   1.925       .  S
O298        C305   1.281       .  A
O299       Ni302   1.918       .  S
O299        C304   1.280       .  A
O300       Ni302   1.919       .  S
O300        C303   1.280       .  A
Ni301      Ni302   2.393       .  S
C303        C496   1.432       .  S
C304        C414   1.432       .  S
C305        C582   1.445       .  S
C306        C454   1.445       .  S
O307       Ni315   1.917       .  S
O307        C317   1.280       .  A
O308       Ni315   1.917       .  S
O308        C318   1.279       .  A
O309       Ni315   1.926       .  S
O309        C319   1.282       .  A
O310       Ni315   1.926       .  S
O310        C320   1.282       .  A
O311       Ni316   1.917       .  S
O311        C320   1.279       .  A
O312       Ni316   1.918       .  S
O312        C319   1.280       .  A
O313       Ni316   1.913       .  S
O313        C318   1.279       .  A
O314       Ni316   1.916       .  S
O314        C317   1.279       .  A
Ni315      Ni316   2.394       .  S
C317        C890   1.433       .  S
C318        C750   1.431       .  S
C319        C820   1.440       .  S
C320        C958   1.440       .  S
O321       Ni329   1.924       .  S
O321        C331   1.281       .  A
O322       Ni329   1.924       .  S
O322        C332   1.281       .  A
O323       Ni329   1.923       .  S
O323        C333   1.281       .  A
O324       Ni329   1.922       .  S
O324        C334   1.280       .  A
O325       Ni330   1.927       .  S
O325        C334   1.282       .  A
O326       Ni330   1.927       .  S
O326        C333   1.282       .  A
O327       Ni330   1.927       .  S
O327        C332   1.281       .  A
O328       Ni330   1.927       .  S
O328        C331   1.282       .  A
Ni329      Ni330   2.391       .  S
C331        C790   1.445       .  S
C332        C428   1.445       .  S
C333        C400   1.444       .  S
C334        C874   1.444       .  S
O335       Ni343   1.920       .  S
O335        C345   1.280       .  A
O336       Ni343   1.918       .  S
O336        C346   1.280       .  A
O337       Ni343   1.914       .  S
O337        C347   1.279       .  A
O338       Ni343   1.913       .  S
O338        C348   1.279       .  A
O339       Ni344   1.913       .  S
O339        C348   1.278       .  A
O340       Ni344   1.914       .  S
O340        C347   1.279       .  A
O341       Ni344   1.926       .  S
O341        C346   1.282       .  A
O342       Ni344   1.929       .  S
O342        C345   1.282       .  A
Ni343      Ni344   2.394       .  S
C345        C384   1.444       .  S
C346        C720   1.440       .  S
C347        C806   1.429       .  S
C348        C568   1.429       .  S
O349       Ni357   1.912       .  S
O349        C359   1.279       .  A
O350       Ni357   1.914       .  S
O350        C360   1.279       .  A
O351       Ni357   1.910       .  S
O351        C361   1.278       .  A
O352       Ni357   1.908       .  S
O352        C362   1.277       .  A
O353       Ni358   1.914       .  S
O353        C362   1.279       .  A
O354       Ni358   1.918       .  S
O354        C361   1.280       .  A
O355       Ni358   1.913       .  S
O355        C360   1.279       .  A
O356       Ni358   1.910       .  S
O356        C359   1.278       .  A
Ni357      Ni358   2.397       .  S
C359        C930   1.426       .  S
C360        C554   1.429       .  S
C361        C484   1.431       .  S
C362        C736   1.425       .  S
O363       Ni371   1.918       .  S
O363        C373   1.280       .  A
O364       Ni371   1.918       .  S
O364        C374   1.280       .  A
O365       Ni371   1.921       .  S
O365        C375   1.281       .  A
O366       Ni371   1.921       .  S
O366        C376   1.281       .  A
O367       Ni372   1.917       .  S
O367        C376   1.279       .  A
O368       Ni372   1.917       .  S
O368        C375   1.279       .  A
O369       Ni372   1.927       .  S
O369        C374   1.282       .  A
O370       Ni372   1.927       .  S
O370        C373   1.282       .  A
Ni371      Ni372   2.393       .  S
C373        C470   1.441       .  S
C374        C860   1.440       .  S
C375        C946   1.436       .  S
C376        C442   1.437       .  S
C377        C385   1.449       .  S
C377        C378   1.403       .  A
C377        C382   1.403       .  A
C378        C379   1.403       .  A
C378        H387   1.083       .  S
C379        C380   1.403       .  A
C379        H388   1.083       .  S
C380        C383   1.449       .  S
C380        C381   1.403       .  A
C381        C382   1.403       .  A
C381        H389   1.083       .  S
C382        H390   1.083       .  S
C383        C384   1.211       .  T
C385        C386   1.212       .  T
C391        C399   1.449       .  S
C391        C392   1.402       .  A
C391        C396   1.404       .  A
C392        C393   1.401       .  A
C392        H401   1.083       .  S
C393        C394   1.402       .  A
C393        H402   1.083       .  S
C394        C397   1.448       .  S
C394        C395   1.403       .  A
C395        C396   1.403       .  A
C395        H403   1.083       .  S
C396        H404   1.083       .  S
C397        C398   1.211       .  T
C399        C400   1.211       .  T
C405        C413   1.437       .  S
C405        C406   1.401       .  A
C405        C410   1.401       .  A
C406        C407   1.398       .  A
C406        H415   1.084       .  S
C407        C408   1.401       .  A
C407        H416   1.084       .  S
C408        C411   1.437       .  S
C408        C409   1.401       .  A
C409        C410   1.398       .  A
C409        H417   1.083       .  S
C410        H418   1.083       .  S
C411        C412   1.204       .  T
C413        C414   1.204       .  T
C419        C427   1.450       .  S
C419        C420   1.402       .  A
C419        C424   1.404       .  A
C420        C421   1.402       .  A
C420        H429   1.083       .  S
C421        C422   1.403       .  A
C421        H430   1.083       .  S
C422        C425   1.449       .  S
C422        C423   1.403       .  A
C423        C424   1.404       .  A
C423        H431   1.083       .  S
C424        H432   1.083       .  S
C425        C426   1.212       .  T
C427        C428   1.212       .  T
C433        C441   1.442       .  S
C433        C434   1.401       .  A
C433        C438   1.402       .  A
C434        C435   1.398       .  A
C434        H443   1.083       .  S
C435        C436   1.401       .  A
C435        H444   1.083       .  S
C436        C439   1.442       .  S
C436        C437   1.402       .  A
C437        C438   1.401       .  A
C437        H445   1.083       .  S
C438        H446   1.083       .  S
C439        C440   1.207       .  T
C441        C442   1.207       .  T
C447        C455   1.449       .  S
C447        C448   1.403       .  A
C447        C452   1.403       .  A
C448        C449   1.403       .  A
C448        H457   1.083       .  S
C449        C450   1.403       .  A
C449        H458   1.083       .  S
C450        C453   1.450       .  S
C450        C451   1.403       .  A
C451        C452   1.403       .  A
C451        H459   1.083       .  S
C452        H460   1.083       .  S
C453        C454   1.212       .  T
C455        C456   1.212       .  T
C461        C469   1.446       .  S
C461        C462   1.402       .  A
C461        C466   1.403       .  A
C462        C463   1.401       .  A
C462        H471   1.083       .  S
C463        C464   1.403       .  A
C463        H472   1.083       .  S
C464        C467   1.447       .  S
C464        C465   1.402       .  A
C465        C466   1.402       .  A
C465        H473   1.083       .  S
C466        H474   1.083       .  S
C467        C468   1.210       .  T
C469        C470   1.210       .  T
C475        C483   1.436       .  S
C475        C476   1.401       .  A
C475        C480   1.401       .  A
C476        C477   1.399       .  A
C476        H485   1.083       .  S
C477        C478   1.401       .  A
C477        H486   1.083       .  S
C478        C481   1.436       .  S
C478        C479   1.400       .  A
C479        C480   1.396       .  A
C479        H487   1.084       .  S
C480        H488   1.084       .  S
C481        C482   1.204       .  T
C483        C484   1.204       .  T
C489        C497   1.436       .  S
C489        C490   1.401       .  A
C489        C494   1.400       .  A
C490        C491   1.399       .  A
C490        H499   1.083       .  S
C491        C492   1.401       .  A
C491        H500   1.083       .  S
C492        C495   1.437       .  S
C492        C493   1.400       .  A
C493        C494   1.397       .  A
C493        H501   1.084       .  S
C494        H502   1.084       .  S
C495        C496   1.204       .  T
C497        C498   1.204       .  T
C503        C511   1.436       .  S
C503        C504   1.401       .  A
C503        C508   1.400       .  A
C504        C505   1.397       .  A
C504        H513   1.084       .  S
C505        C506   1.400       .  A
C505        H514   1.084       .  S
C506        C509   1.437       .  S
C506        C507   1.401       .  A
C507        C508   1.398       .  A
C507        H515   1.083       .  S
C508        H516   1.083       .  S
C509        C510   1.204       .  T
C511        C512   1.204       .  T
C517        C525   1.451       .  S
C517        C518   1.402       .  A
C517        C522   1.404       .  A
C518        C519   1.402       .  A
C518        H527   1.083       .  S
C519        C520   1.403       .  A
C519        H528   1.083       .  S
C520        C523   1.451       .  S
C520        C521   1.404       .  A
C521        C522   1.404       .  A
C521        H529   1.083       .  S
C522        H530   1.083       .  S
C523        C524   1.212       .  T
C525        C526   1.212       .  T
C531        C539   1.436       .  S
C531        C532   1.401       .  A
C531        C536   1.401       .  A
C532        C533   1.397       .  A
C532        H541   1.084       .  S
C533        C534   1.400       .  A
C533        H542   1.084       .  S
C534        C537   1.435       .  S
C534        C535   1.401       .  A
C535        C536   1.398       .  A
C535        H543   1.083       .  S
C536        H544   1.083       .  S
C537        C538   1.203       .  T
C539        C540   1.203       .  T
C545        C553   1.434       .  S
C545        C546   1.401       .  A
C545        C550   1.399       .  A
C546        C547   1.398       .  A
C546        H555   1.083       .  S
C547        C548   1.401       .  A
C547        H556   1.083       .  S
C548        C551   1.433       .  S
C548        C549   1.400       .  A
C549        C550   1.395       .  A
C549        H557   1.084       .  S
C550        H558   1.084       .  S
C551        C552   1.202       .  T
C553        C554   1.202       .  T
C559        C567   1.434       .  S
C559        C560   1.400       .  A
C559        C564   1.401       .  A
C560        C561   1.396       .  A
C560        H569   1.084       .  S
C561        C562   1.400       .  A
C561        H570   1.084       .  S
C562        C565   1.435       .  S
C562        C563   1.401       .  A
C563        C564   1.398       .  A
C563        H571   1.083       .  S
C564        H572   1.084       .  S
C565        C566   1.203       .  T
C567        C568   1.202       .  T
C573        C581   1.450       .  S
C573        C574   1.403       .  A
C573        C578   1.403       .  A
C574        C575   1.403       .  A
C574        H583   1.083       .  S
C575        C576   1.403       .  A
C575        H584   1.083       .  S
C576        C579   1.450       .  S
C576        C577   1.404       .  A
C577        C578   1.403       .  A
C577        H585   1.083       .  S
C578        H586   1.083       .  S
C579        C580   1.212       .  T
C581        C582   1.212       .  T
C587        C595   1.449       .  S
C587        C588   1.402       .  A
C587        C592   1.404       .  A
C588        C589   1.401       .  A
C588        H597   1.083       .  S
C589        C590   1.403       .  A
C589        H598   1.083       .  S
C590        C593   1.449       .  S
C590        C591   1.403       .  A
C591        C592   1.404       .  A
C591        H599   1.083       .  S
C592        H600   1.083       .  S
C593        C594   1.212       .  T
C595        C596   1.212       .  T
C601        C609   1.441       .  S
C601        C602   1.401       .  A
C601        C606   1.401       .  A
C602        C603   1.399       .  A
C602        H611   1.084       .  S
C603        C604   1.401       .  A
C603        H612   1.083       .  S
C604        C607   1.441       .  S
C604        C605   1.402       .  A
C605        C606   1.400       .  A
C605        H613   1.083       .  S
C606        H614   1.083       .  S
C607        C608   1.207       .  T
C609        C610   1.207       .  T
C615        C623   1.447       .  S
C615        C616   1.403       .  A
C615        C620   1.402       .  A
C616        C617   1.403       .  A
C616        H625   1.083       .  S
C617        C618   1.404       .  A
C617        H626   1.083       .  S
C618        C621   1.448       .  S
C618        C619   1.402       .  A
C619        C620   1.401       .  A
C619        H627   1.083       .  S
C620        H628   1.083       .  S
C621        C622   1.211       .  T
C623        C624   1.210       .  T
C629        C637   1.449       .  S
C629        C630   1.402       .  A
C629        C634   1.403       .  A
C630        C631   1.402       .  A
C630        H639   1.083       .  S
C631        C632   1.403       .  A
C631        H640   1.083       .  S
C632        C635   1.449       .  S
C632        C633   1.402       .  A
C633        C634   1.403       .  A
C633        H641   1.083       .  S
C634        H642   1.083       .  S
C635        C636   1.211       .  T
C637        C638   1.211       .  T
C643        C651   1.448       .  S
C643        C644   1.403       .  A
C643        C648   1.403       .  A
C644        C645   1.402       .  A
C644        H653   1.083       .  S
C645        C646   1.402       .  A
C645        H654   1.083       .  S
C646        C649   1.448       .  S
C646        C647   1.403       .  A
C647        C648   1.403       .  A
C647        H655   1.083       .  S
C648        H656   1.083       .  S
C649        C650   1.211       .  T
C651        C652   1.211       .  T
C657        C665   1.439       .  S
C657        C658   1.402       .  A
C657        C662   1.401       .  A
C658        C659   1.400       .  A
C658        H667   1.083       .  S
C659        C660   1.402       .  A
C659        H668   1.083       .  S
C660        C663   1.440       .  S
C660        C661   1.401       .  A
C661        C662   1.398       .  A
C661        H669   1.083       .  S
C662        H670   1.084       .  S
C663        C664   1.206       .  T
C665        C666   1.205       .  T
C671        C679   1.446       .  S
C671        C672   1.402       .  A
C671        C676   1.403       .  A
C672        C673   1.401       .  A
C672        H681   1.083       .  S
C673        C674   1.402       .  A
C673        H682   1.083       .  S
C674        C677   1.445       .  S
C674        C675   1.402       .  A
C675        C676   1.401       .  A
C675        H683   1.083       .  S
C676        H684   1.083       .  S
C677        C678   1.209       .  T
C679        C680   1.209       .  T
C685        C693   1.438       .  S
C685        C686   1.400       .  A
C685        C690   1.402       .  A
C686        C687   1.398       .  A
C686        H695   1.083       .  S
C687        C688   1.401       .  A
C687        H696   1.083       .  S
C688        C691   1.438       .  S
C688        C689   1.401       .  A
C689        C690   1.399       .  A
C689        H697   1.083       .  S
C690        H698   1.084       .  S
C691        C692   1.205       .  T
C693        C694   1.205       .  T
C699        C707   1.430       .  S
C699        C700   1.400       .  A
C699        C704   1.400       .  A
C700        C701   1.394       .  A
C700        H709   1.084       .  S
C701        C702   1.398       .  A
C701        H710   1.084       .  S
C702        C705   1.430       .  S
C702        C703   1.401       .  A
C703        C704   1.397       .  A
C703        H711   1.084       .  S
C704        H712   1.083       .  S
C705        C706   1.200       .  T
C707        C708   1.200       .  T
C713        C721   1.443       .  S
C713        C714   1.401       .  A
C713        C718   1.402       .  A
C714        C715   1.400       .  A
C714        H723   1.084       .  S
C715        C716   1.402       .  A
C715        H724   1.083       .  S
C716        C719   1.444       .  S
C716        C717   1.402       .  A
C717        C718   1.401       .  A
C717        H725   1.083       .  S
C718        H726   1.083       .  S
C719        C720   1.209       .  T
C721        C722   1.208       .  T
C727        C735   1.430       .  S
C727        C728   1.400       .  A
C727        C732   1.400       .  A
C728        C729   1.396       .  A
C728        H737   1.084       .  S
C729        C730   1.400       .  A
C729        H738   1.084       .  S
C730        C733   1.430       .  S
C730        C731   1.399       .  A
C731        C732   1.395       .  A
C731        H739   1.084       .  S
C732        H740   1.084       .  S
C733        C734   1.200       .  T
C735        C736   1.200       .  T
C741        C749   1.436       .  S
C741        C742   1.400       .  A
C741        C746   1.401       .  A
C742        C743   1.396       .  A
C742        H751   1.084       .  S
C743        C744   1.400       .  A
C743        H752   1.084       .  S
C744        C747   1.436       .  S
C744        C745   1.401       .  A
C745        C746   1.399       .  A
C745        H753   1.083       .  S
C746        H754   1.083       .  S
C747        C748   1.204       .  T
C749        C750   1.204       .  T
C755        C763   1.436       .  S
C755        C756   1.400       .  A
C755        C760   1.401       .  A
C756        C757   1.396       .  A
C756        H765   1.084       .  S
C757        C758   1.400       .  A
C757        H766   1.084       .  S
C758        C761   1.436       .  S
C758        C759   1.401       .  A
C759        C760   1.398       .  A
C759        H767   1.083       .  S
C760        H768   1.083       .  S
C761        C762   1.204       .  T
C763        C764   1.203       .  T
C769        C777   1.443       .  S
C769        C770   1.402       .  A
C769        C774   1.401       .  A
C770        C771   1.402       .  A
C770        H779   1.083       .  S
C771        C772   1.403       .  A
C771        H780   1.083       .  S
C772        C775   1.442       .  S
C772        C773   1.401       .  A
C773        C774   1.398       .  A
C773        H781   1.084       .  S
C774        H782   1.083       .  S
C775        C776   1.207       .  T
C777        C778   1.208       .  T
C783        C791   1.449       .  S
C783        C784   1.403       .  A
C783        C788   1.403       .  A
C784        C785   1.403       .  A
C784        H793   1.083       .  S
C785        C786   1.403       .  A
C785        H794   1.083       .  S
C786        C789   1.449       .  S
C786        C787   1.403       .  A
C787        C788   1.402       .  A
C787        H795   1.083       .  S
C788        H796   1.083       .  S
C789        C790   1.212       .  T
C791        C792   1.211       .  T
C797        C805   1.434       .  S
C797        C798   1.399       .  A
C797        C802   1.401       .  A
C798        C799   1.395       .  A
C798        H807   1.084       .  S
C799        C800   1.400       .  A
C799        H808   1.084       .  S
C800        C803   1.434       .  S
C800        C801   1.401       .  A
C801        C802   1.398       .  A
C801        H809   1.083       .  S
C802        H810   1.083       .  S
C803        C804   1.203       .  T
C805        C806   1.203       .  T
C811        C819   1.445       .  S
C811        C812   1.401       .  A
C811        C816   1.403       .  A
C812        C813   1.400       .  A
C812        H821   1.083       .  S
C813        C814   1.402       .  A
C813        H822   1.083       .  S
C814        C817   1.446       .  S
C814        C815   1.403       .  A
C815        C816   1.402       .  A
C815        H823   1.083       .  S
C816        H824   1.083       .  S
C817        C818   1.209       .  T
C819        C820   1.209       .  T
C825        C833   1.439       .  S
C825        C826   1.401       .  A
C825        C830   1.401       .  A
C826        C827   1.399       .  A
C826        H835   1.083       .  S
C827        C828   1.402       .  A
C827        H836   1.084       .  S
C828        C831   1.438       .  S
C828        C829   1.401       .  A
C829        C830   1.398       .  A
C829        H837   1.083       .  S
C830        H838   1.083       .  S
C831        C832   1.205       .  T
C833        C834   1.205       .  T
C839        C847   1.445       .  S
C839        C840   1.402       .  A
C839        C844   1.402       .  A
C840        C841   1.402       .  A
C840        H849   1.083       .  S
C841        C842   1.403       .  A
C841        H850   1.083       .  S
C842        C845   1.446       .  S
C842        C843   1.401       .  A
C843        C844   1.400       .  A
C843        H851   1.083       .  S
C844        H852   1.084       .  S
C845        C846   1.209       .  T
C847        C848   1.209       .  T
C853        C861   1.444       .  S
C853        C854   1.401       .  A
C853        C858   1.403       .  A
C854        C855   1.399       .  A
C854        H863   1.083       .  S
C855        C856   1.402       .  A
C855        H864   1.083       .  S
C856        C859   1.445       .  S
C856        C857   1.403       .  A
C857        C858   1.402       .  A
C857        H865   1.083       .  S
C858        H866   1.083       .  S
C859        C860   1.209       .  T
C861        C862   1.208       .  T
C867        C875   1.449       .  S
C867        C868   1.403       .  A
C867        C872   1.403       .  A
C868        C869   1.403       .  A
C868        H877   1.083       .  S
C869        C870   1.403       .  A
C869        H878   1.083       .  S
C870        C873   1.449       .  S
C870        C871   1.402       .  A
C871        C872   1.402       .  A
C871        H879   1.083       .  S
C872        H880   1.083       .  S
C873        C874   1.211       .  T
C875        C876   1.211       .  T
C881        C889   1.438       .  S
C881        C882   1.400       .  A
C881        C886   1.402       .  A
C882        C883   1.397       .  A
C882        H891   1.084       .  S
C883        C884   1.401       .  A
C883        H892   1.084       .  S
C884        C887   1.438       .  S
C884        C885   1.401       .  A
C885        C886   1.400       .  A
C885        H893   1.083       .  S
C886        H894   1.083       .  S
C887        C888   1.205       .  T
C889        C890   1.205       .  T
C895        C903   1.449       .  S
C895        C896   1.404       .  A
C895        C900   1.402       .  A
C896        C897   1.404       .  A
C896        H905   1.083       .  S
C897        C898   1.403       .  A
C897        H906   1.083       .  S
C898        C901   1.449       .  S
C898        C899   1.403       .  A
C899        C900   1.401       .  A
C899        H907   1.083       .  S
C900        H908   1.083       .  S
C901        C902   1.211       .  T
C903        C904   1.211       .  T
C909        C917   1.443       .  S
C909        C910   1.403       .  A
C909        C914   1.401       .  A
C910        C911   1.401       .  A
C910        H919   1.083       .  S
C911        C912   1.402       .  A
C911        H920   1.083       .  S
C912        C915   1.443       .  S
C912        C913   1.402       .  A
C913        C914   1.400       .  A
C913        H921   1.083       .  S
C914        H922   1.083       .  S
C915        C916   1.208       .  T
C917        C918   1.208       .  T
C923        C931   1.431       .  S
C923        C924   1.401       .  A
C923        C928   1.399       .  A
C924        C925   1.397       .  A
C924        H933   1.083       .  S
C925        C926   1.400       .  A
C925        H934   1.083       .  S
C926        C929   1.431       .  S
C926        C927   1.400       .  A
C927        C928   1.394       .  A
C927        H935   1.084       .  S
C928        H936   1.084       .  S
C929        C930   1.201       .  T
C931        C932   1.201       .  T
C937        C945   1.441       .  S
C937        C938   1.402       .  A
C937        C942   1.401       .  A
C938        C939   1.400       .  A
C938        H947   1.083       .  S
C939        C940   1.402       .  A
C939        H948   1.083       .  S
C940        C943   1.440       .  S
C940        C941   1.401       .  A
C941        C942   1.398       .  A
C941        H949   1.084       .  S
C942        H950   1.083       .  S
C943        C944   1.206       .  T
C945        C946   1.207       .  T
C951        C959   1.444       .  S
C951        C952   1.402       .  A
C951        C956   1.402       .  A
C952        C953   1.402       .  A
C952        H961   1.083       .  S
C953        C954   1.403       .  A
C953        H962   1.083       .  S
C954        C957   1.444       .  S
C954        C955   1.402       .  A
C955        C956   1.400       .  A
C955        H963   1.083       .  S
C956        H964   1.083       .  S
C957        C958   1.209       .  T
C959        C960   1.208       .  T
C965        C973   1.441       .  S
C965        C966   1.401       .  A
C965        C970   1.402       .  A
C966        C967   1.398       .  A
C966        H975   1.084       .  S
C967        C968   1.401       .  A
C967        H976   1.084       .  S
C968        C971   1.441       .  S
C968        C969   1.402       .  A
C969        C970   1.401       .  A
C969        H977   1.083       .  S
C970        H978   1.083       .  S
C971        C972   1.206       .  T
C973        C974   1.206       .  T
C979        C987   1.429       .  S
C979        C980   1.400       .  A
C979        C984   1.399       .  A
C980        C981   1.395       .  A
C980        H989   1.084       .  S
C981        C982   1.400       .  A
C981        H990   1.084       .  S
C982        C985   1.428       .  S
C982        C983   1.399       .  A
C983        C984   1.394       .  A
C983        H991   1.084       .  S
C984        H992   1.084       .  S
C985        C986   1.199   1_554  T
C987        C988   1.199       .  T
C993       C1001   1.434       .  S
C993        C994   1.400       .  A
C993        C998   1.400       .  A
C994        C995   1.398       .  A
C994       H1003   1.083       .  S
C995        C996   1.401       .  A
C995       H1004   1.083       .  S
C996        C999   1.434       .  S
C996        C997   1.400       .  A
C997        C998   1.396       .  A
C997       H1005   1.084       .  S
C998       H1006   1.084       .  S
C999       C1000   1.202       .  T
C1001      C1002   1.202       .  T
C1007      C1015   1.444       .  S
C1007      C1008   1.403       .  A
C1007      C1012   1.402       .  A
C1008      C1009   1.401       .  A
C1008      H1017   1.083       .  S
C1009      C1010   1.402       .  A
C1009      H1018   1.083       .  S
C1010      C1013   1.444       .  S
C1010      C1011   1.402       .  A
C1011      C1012   1.400       .  A
C1011      H1019   1.083       .  S
C1012      H1020   1.083       .  S
C1013      C1014   1.209       .  T
C1015      C1016   1.209       .  T
C1021      C1029   1.438       .  S
C1021      C1022   1.401       .  A
C1021      C1026   1.401       .  A
C1022      C1023   1.399       .  A
C1022      H1031   1.083       .  S
C1023      C1024   1.402       .  A
C1023      H1032   1.083       .  S
C1024      C1027   1.438       .  S
C1024      C1025   1.400       .  A
C1025      C1026   1.397       .  A
C1025      H1033   1.083       .  S
C1026      H1034   1.084       .  S
C1027      C1028   1.205       .  T
C1029      C1030   1.205       .  T
C1035      C1043   1.440       .  S
C1035      C1036   1.400       .  A
C1035      C1040   1.403       .  A
C1036      C1037   1.397       .  A
C1036      H1045   1.083       .  S
C1037      C1038   1.401       .  A
C1037      H1046   1.084       .  S
C1038      C1041   1.440       .  S
C1038      C1039   1.402       .  A
C1039      C1040   1.401       .  A
C1039      H1047   1.083       .  S
C1040      H1048   1.083       .  S
C1041      C1042   1.206       .  T
C1043      C1044   1.206       .  T
