geometry optimzed in LAMMPS
_audit_creation_date              2020-12-01 
_audit_creation_method            'lammps2cif' 
_symmetry_space_group_name_H-M    'P1' 
_symmetry_Int_Tables_number       1 
_symmetry_cell_setting            triclinic 
loop_ 
_symmetry_equiv_pos_as_xyz 
  x,y,z 
_cell_length_a                    41.94038799 
_cell_length_b                    41.948359044515456 
_cell_length_c                    43.45616504948957 
_cell_angle_alpha                 89.59763069323094 
_cell_angle_beta                  90.13430930031207 
_cell_angle_gamma                 120.92037350813762 
loop_ 
_atom_site_label 
_atom_site_type_symbol 
_atom_site_fract_x 
_atom_site_fract_y 
_atom_site_fract_z 
_atom_site_charge 
O1          O  0.26999019  0.62671112  0.28298293    -0.81200
C2          C  0.39386354  0.73418114  0.21361008     0.98100
O3          O  0.36837784  0.73680166  0.22602595    -0.70300
O4          O  0.29942001  0.69053281  0.21147165    -0.73900
Al5        Al  0.32607313  0.70550633  0.24938731     1.49000
C6          C  0.27227833  0.65872134  0.20544305     0.93400
O7          O  0.31324741  0.60755385  0.21457372    -0.80200
O8          O  0.36788503  0.64314012  0.28962407    -0.73700
Al9        Al  0.29421180  0.62031522  0.24886756     1.90100
O10         O  0.37202435  0.63614874  0.22753211    -0.72800
O11         O  0.39685747  0.71481135  0.28211933    -0.72600
O12         O  0.39825208  0.70727777  0.21978811    -0.78300
O13         O  0.35170320  0.72622367  0.28693032    -0.76500
O14         O  0.33334759  0.66684500  0.25089037    -1.12600
O15         O  0.28196519  0.68294117  0.27263100    -0.71800
C16         C  0.26402642  0.65288498  0.28723573     0.98900
C17         C  0.34549938  0.61293083  0.21117989     0.95300
Al18       Al  0.37949628  0.67462294  0.25446186     1.55600
O19         O  0.26676829  0.63079747  0.22066954    -0.76400
C20         C  0.38301284  0.73169811  0.29502309     0.99500
C21         C  0.34060730  0.61059473  0.29316769     0.94300
O22         O  0.31235784  0.59891009  0.27654399    -0.81800
O23         O  0.62986231  0.27797401  0.21486916    -0.81200
C24         C  0.72752042  0.39314728  0.29453523     0.98100
O25         O  0.73467349  0.37214348  0.27929914    -0.70300
O26         O  0.68810787  0.30202023  0.28976907    -0.73900
Al27       Al  0.70514473  0.33063558  0.25357671     1.49000
C28         C  0.65640648  0.27387323  0.29389309     0.93400
O29         O  0.60329107  0.31174239  0.28481918    -0.80200
O30         O  0.64863291  0.37604003  0.21405450    -0.73700
Al31       Al  0.61989586  0.29767578  0.24992519     1.90100
O32         O  0.63037652  0.37135962  0.27490837    -0.72800
O33         O  0.71872487  0.40518705  0.22807982    -0.72600
O34         O  0.69934942  0.39540082  0.28901469    -0.78300
O35         O  0.72725176  0.35894633  0.21756867    -0.76500
O36         O  0.66612456  0.33703538  0.25164857    -1.12600
O37         O  0.68433751  0.28722274  0.22849205    -0.71800
C38         C  0.65551363  0.27104265  0.21214949     0.98900
C39         C  0.60659203  0.34284552  0.28936886     0.95300
Al40       Al  0.67357384  0.38294387  0.25148979     1.55600
O41         O  0.62910896  0.26759099  0.27725413    -0.76400
C42         C  0.73522963  0.39198972  0.21343753     0.99500
C43         C  0.61627498  0.35025776  0.20778396     0.94300
O44         O  0.60105099  0.31980909  0.22232698    -0.81800
N45         N  0.94341471  0.54049538  0.50237798    -0.36000
N46         N  0.99745732  0.57058075  0.45236280    -0.56600
N47         N  0.05689348  0.59630592  0.49612763    -0.36000
N48         N  0.00265686  0.56284540  0.04434197    -0.56600
C49         C  0.92107428  0.52416263  0.47790442     0.27600
C50         C  0.92375755  0.52575350  0.02553215     0.27600
C51         C  0.07543911  0.59989978  0.46968327     0.27600
C52         C  0.07716382  0.59022191  0.01780073     0.27600
C53         C  0.96630876  0.56071461  0.43623872     0.36200
C54         C  0.02617515  0.59068328  0.43301614     0.36200
C55         C  0.97447475  0.55337993  0.06423788     0.36200
C56         C  0.03413821  0.57883415  0.06117900     0.36200
C57         C  0.88670033  0.49553751  0.48793948    -0.21300
C58         C  0.88794929  0.49921464  0.01682411    -0.21300
C59         C  0.10936056  0.60317348  0.47631061    -0.21300
C60         C  0.10890405  0.59239855  0.00595622    -0.21300
C61         C  0.97522511  0.57476495  0.40648485    -0.22400
C62         C  0.01329613  0.59388554  0.40446414    -0.22400
C63         C  0.98802702  0.56302350  0.09394756    -0.22400
C64         C  0.02597527  0.57932883  0.09198740    -0.22400
C65         C  0.93008362  0.53555757  0.44687453    -0.17700
C66         C  0.93655872  0.53283116  0.05623019    -0.17700
C67         C  0.06964233  0.58993457  0.04935617    -0.17700
C68         C  0.06332225  0.60191534  0.43978290    -0.17700
H69         H  0.86270457  0.47747598  0.47404097     0.15200
H70         H  0.86522736  0.48010026  0.03155551     0.15200
H71         H  0.13060858  0.60668257  0.46021588     0.15200
H72         H  0.13125367  0.59257894  0.01860877     0.15200
H73         H  0.95624275  0.57059802  0.38791272     0.13500
H74         H  0.02956429  0.60733063  0.38404165     0.13500
H75         H  0.97216676  0.55809947  0.11487963     0.13500
H76         H  0.04522839  0.58945636  0.11110113     0.13500
H77         H  0.96905804  0.56510804  0.50196399     0.26700
H78         H  0.03291196  0.59764020  0.49845289     0.26700
N79         N  0.40032831  0.45899626  0.49943905    -0.36000
N80         N  0.44347837  0.44520433  0.04504706    -0.56600
N81         N  0.46249421  0.40891675  0.99779576    -0.36000
N82         N  0.42379424  0.42718753  0.45162799    -0.56600
C83         C  0.40474604  0.48343939  0.02326521     0.27600
C84         C  0.39139913  0.47133046  0.47390721     0.27600
C85         C  0.48459428  0.41005958  0.02096451     0.27600
C86         C  0.47768328  0.40480912  0.47044929     0.27600
C87         C  0.42787810  0.45870730  0.06411256     0.36200
C88         C  0.45906388  0.43063784  0.06317311     0.36200
C89         C  0.40002609  0.43302010  0.43504830     0.36200
C90         C  0.43402556  0.40804793  0.43340689     0.36200
C91         C  0.39753777  0.51026936  0.01240447    -0.21300
C92         C  0.38536602  0.49986917  0.48162228    -0.21300
C93         C  0.51116123  0.40295095  0.00943515    -0.21300
C94         C  0.50826134  0.40160775  0.47715840    -0.21300
C95         C  0.43396843  0.45317197  0.09450206    -0.22400
C96         C  0.45382182  0.43543706  0.09392069    -0.22400
C97         C  0.39480956  0.41720345  0.40619532    -0.22400
C98         C  0.41641603  0.40135071  0.40515146    -0.22400
C99         C  0.41120477  0.47892172  0.05441517    -0.17700
C100        C  0.38759803  0.45710573  0.44387628    -0.17700
C101        C  0.46192956  0.40002360  0.44079032    -0.17700
C102        C  0.48045029  0.41573122  0.05240410    -0.17700
H103        H  0.39651149  0.53160429  0.02543928     0.15200
H104        H  0.37773765  0.51546709  0.46648488     0.15200
H105        H  0.53243114  0.40112531  0.02205776     0.15200
H106        H  0.52466683  0.39602304  0.46132731     0.15200
H107        H  0.42577684  0.46182478  0.11492572     0.13500
H108        H  0.46391092  0.42770382  0.11387010     0.13500
H109        H  0.37837248  0.41834824  0.38745459     0.13500
H110        H  0.41978856  0.38761905  0.38550986     0.13500
H111        H  0.40256067  0.43556265  0.50113473     0.26700
H112        H  0.43788815  0.40885223  0.00033394     0.26700
N113        N  0.54632446  0.94650632  0.00486113    -0.36000
N114        N  0.57264329  0.00627398  0.04942103    -0.56600
N115        N  0.59134418  0.05902219  0.00022521    -0.36000
N116        N  0.56176821  0.00184412  0.45649545    -0.56600
C117        C  0.53086699  0.92706482  0.03104619     0.27600
C118        C  0.52208788  0.92599086  0.48119461     0.27600
C119        C  0.59382849  0.08013201  0.02454991     0.27600
C120        C  0.59022103  0.07860359  0.47679224     0.27600
C121        C  0.56504574  0.97797063  0.06878670     0.36200
C122        C  0.59036659  0.03765482  0.06617180     0.36200
C123        C  0.55286927  0.97172272  0.43933845     0.36200
C124        C  0.58003664  0.03157289  0.43770243     0.36200
C125        C  0.50247250  0.89141028  0.02383402    -0.21300
C126        C  0.49352529  0.89244117  0.49252368    -0.21300
C127        C  0.59314655  0.11116869  0.01434289    -0.21300
C128        C  0.59224456  0.11131080  0.48561814    -0.21300
C129        C  0.57806483  0.99134351  0.09802864    -0.22400
C130        C  0.59429627  0.02927642  0.09635110    -0.22400
C131        C  0.56559091  0.98226613  0.40946430    -0.22400
C132        C  0.58301118  0.02037446  0.40844238    -0.22400
C133        C  0.54214792  0.94018428  0.06131942    -0.17700
C134        C  0.52954835  0.93492277  0.44968785    -0.17700
C135        C  0.59044521  0.06805047  0.44605501    -0.17700
C136        C  0.59854156  0.07289959  0.05550796    -0.17700
H137        H  0.48506044  0.86901591  0.03956057     0.15200
H138        H  0.47228773  0.86930606  0.47951976     0.15200
H139        H  0.59530315  0.13361909  0.02807274     0.15200
H140        H  0.59226793  0.13218542  0.47081241     0.15200
H141        H  0.57496439  0.97532786  0.11862261     0.13500
H142        H  0.60611985  0.04828787  0.11544748     0.13500
H143        H  0.56176849  0.96430748  0.39029180     0.13500
H144        H  0.59536212  0.03772758  0.38828309     0.13500
H145        H  0.57029499  0.97229927  0.00325678     0.26700
H146        H  0.59605486  0.03714450  0.00061958     0.26700
C147        C  0.65610503  0.15216908  0.11087541    -0.04900
C148        C  0.62849807  0.15757579  0.12396030     0.09300
C149        C  0.59106403  0.13506255  0.11472837    -0.02300
C150        C  0.58142366  0.10771287  0.09213630    -0.00500
C151        C  0.60913086  0.10277138  0.07864476    -0.04200
C152        C  0.64649352  0.12504671  0.08801806     0.02900
C153        C  0.63870507  0.18732229  0.14721742     0.09700
C154        C  0.56240509  0.13983561  0.12868548     0.35600
C155        C  0.67493038  0.11984929  0.07422517     0.39000
C156        C  0.65583137  0.22488027  0.13777578    -0.04500
C157        C  0.66259280  0.25256408  0.15935558     0.02600
C158        C  0.65116133  0.24260546  0.19012742    -0.04100
C159        C  0.63467496  0.20519318  0.19972732    -0.00300
C160        C  0.62959502  0.17778763  0.17848174    -0.02900
C161        C  0.66616177  0.23494787  0.10581029     0.36400
C162        C  0.62146296  0.19453478  0.23108357     0.40000
C163        C  0.68073274  0.29122589  0.14986996     0.39100
C164        C  0.61525657  0.13980125  0.18872336     0.36000
C165        C  0.69420929  0.17407685  0.12146394     0.36700
C166        C  0.54300262  0.08462800  0.08258228     0.39900
N167        N  0.69521704  0.32208590  0.14234858    -0.38100
N168        N  0.67459358  0.24299178  0.08032897    -0.39700
N169        N  0.61018957  0.18545170  0.25585508    -0.37400
N170        N  0.60420839  0.10957480  0.19690281    -0.39800
N171        N  0.53946555  0.14337849  0.13999262    -0.39600
N172        N  0.51245433  0.06621567  0.07472861    -0.37200
N173        N  0.69764271  0.11572095  0.06321538    -0.38300
N174        N  0.72452192  0.19159743  0.13011751    -0.39900
C175        C  0.58738729  0.12489138  0.37874525    -0.04900
C176        C  0.62419327  0.15539775  0.37890557     0.09300
C177        C  0.65047007  0.15602931  0.39956969    -0.02300
C178        C  0.63957672  0.12691153  0.42091766    -0.00500
C179        C  0.60235712  0.09707285  0.42166268    -0.04200
C180        C  0.57637078  0.09588866  0.40025607     0.02900
C181        C  0.63474515  0.18764310  0.35814574     0.09700
C182        C  0.68858330  0.18691044  0.39913335     0.35600
C183        C  0.53808086  0.06545179  0.40083114     0.39000
C184        C  0.62079334  0.21134623  0.36384558    -0.04500
C185        C  0.62806306  0.23994886  0.34286857     0.02600
C186        C  0.65135707  0.24642260  0.31737584    -0.04100
C187        C  0.66737068  0.22435179  0.31280249    -0.00300
C188        C  0.65778238  0.19397931  0.33244668    -0.02900
C189        C  0.59832003  0.20573396  0.39097542     0.36400
C190        C  0.69218838  0.23172147  0.28697742     0.40000
C191        C  0.61126112  0.26238295  0.34735850     0.39100
C192        C  0.67000868  0.16817608  0.32537658     0.36000
C193        C  0.56076995  0.12374663  0.35667535     0.36700
C194        C  0.66646914  0.12800597  0.44262961     0.39900
N195        N  0.59747320  0.27989952  0.35104934    -0.38100
N196        N  0.58033448  0.20111197  0.41259012    -0.39700
N197        N  0.71197242  0.23761926  0.26639085    -0.37400
N198        N  0.67945456  0.14739571  0.31955959    -0.39800
N199        N  0.71905986  0.21137277  0.39857711    -0.39600
N200        N  0.68772993  0.12894236  0.46017483    -0.37200
N201        N  0.50747801  0.04126877  0.40095271    -0.38300
N202        N  0.53963335  0.12308372  0.33913372    -0.39900
C203        C  0.86898814  0.47206330  0.38325709    -0.04900
C204        C  0.84074270  0.48082732  0.38225860     0.09300
C205        C  0.84242906  0.50855904  0.40148157    -0.02300
C206        C  0.87231784  0.52737038  0.42198378    -0.00500
C207        C  0.89993988  0.51774043  0.42372255    -0.04200
C208        C  0.89823343  0.49004229  0.40434321     0.02900
C209        C  0.80879746  0.45986127  0.36126436     0.09700
C210        C  0.81309225  0.51717397  0.40044873     0.35600
C211        C  0.92596436  0.47928882  0.40669779     0.39000
C212        C  0.78153879  0.42285128  0.36861389    -0.04500
C213        C  0.75439285  0.40094793  0.34681518     0.02600
C214        C  0.75368319  0.41660210  0.31825348    -0.04100
C215        C  0.77973733  0.45416127  0.31147731    -0.00300
C216        C  0.80759735  0.47573835  0.33292044    -0.02900
C217        C  0.78211374  0.40719225  0.39834568     0.36400
C218        C  0.77896875  0.47004437  0.28189341     0.40000
C219        C  0.72779673  0.36214411  0.35345209     0.39100
C220        C  0.83581634  0.51378085  0.32547653     0.36000
C221        C  0.86763938  0.44423055  0.36271783     0.36700
C222        C  0.87452791  0.55628297  0.44157653     0.39900
N223        N  0.70667608  0.33119802  0.35881436    -0.38100
N224        N  0.78266924  0.39483233  0.42209358    -0.39700
N225        N  0.77851283  0.48275708  0.25829045    -0.37400
N226        N  0.85835448  0.54414330  0.31964096    -0.39800
N227        N  0.78962763  0.52396772  0.39954494    -0.39600
N228        N  0.87634744  0.57932527  0.45728100    -0.37200
N229        N  0.94789609  0.47046795  0.40854335    -0.38300
N230        N  0.86639215  0.42200633  0.34630781    -0.39900
C231        C  0.78502165  0.44516173  0.14119000    -0.04900
C232        C  0.82252438  0.45991334  0.14969622     0.09300
C233        C  0.83133805  0.45406937  0.17976254    -0.02300
C234        C  0.80269649  0.43172518  0.20068487    -0.00500
C235        C  0.76518200  0.41611492  0.19183275    -0.04200
C236        C  0.75639824  0.42378055  0.16243899     0.02900
C237        C  0.85266958  0.47940720  0.12636894     0.09700
C238        C  0.86994338  0.47103230  0.18899974     0.35600
C239        C  0.71786168  0.40905890  0.15394427     0.39000
C240        C  0.86511346  0.51648598  0.11769987    -0.04500
C241        C  0.89210002  0.53379757  0.09437446     0.02600
C242        C  0.90857673  0.51501372  0.08129925    -0.04100
C243        C  0.89739216  0.47858614  0.09102251    -0.00300
C244        C  0.86855773  0.46034730  0.11268408    -0.02900
C245        C  0.85039341  0.53682263  0.13298500     0.36400
C246        C  0.91533013  0.45981450  0.07838475     0.40000
C247        C  0.90246499  0.57058838  0.08332589     0.39100
C248        C  0.85445351  0.42161804  0.12030555     0.36000
C249        C  0.77592565  0.45123156  0.11032544     0.36700
C250        C  0.81187901  0.42494472  0.23131893     0.39900
N251        N  0.91054587  0.59977843  0.07418697    -0.38100
N252        N  0.83891330  0.55319000  0.14537354    -0.39700
N253        N  0.92990372  0.44504563  0.06841789    -0.37400
N254        N  0.84288776  0.39062782  0.12622109    -0.39800
N255        N  0.90078564  0.48475890  0.19625909    -0.39600
N256        N  0.81947949  0.41970417  0.25570040    -0.37200
N257        N  0.68708644  0.39732261  0.14728800    -0.38300
N258        N  0.76870841  0.45608402  0.08567772    -0.39900
C259        C  0.56913569  0.35003841  0.13328321    -0.04900
C260        C  0.55945546  0.37690599  0.13993204     0.09300
C261        C  0.56691854  0.39348420  0.16917678    -0.02300
C262        C  0.58473141  0.38386312  0.19156373    -0.00500
C263        C  0.59503626  0.35751732  0.18479684    -0.04200
C264        C  0.58632042  0.33978690  0.15598409     0.02900
C265        C  0.53953062  0.38656679  0.11680997     0.09700
C266        C  0.55600792  0.42032863  0.17622328     0.35600
C267        C  0.59479184  0.31099615  0.14980818     0.39000
C268        C  0.50084028  0.36304393  0.11314442    -0.04500
C269        C  0.48155125  0.37258184  0.09208197     0.02600
C270        C  0.50073108  0.40628090  0.07539189    -0.04100
C271        C  0.53915744  0.43064295  0.08013956    -0.00300
C272        C  0.55870706  0.42041700  0.10033698    -0.02900
C273        C  0.48081531  0.32963264  0.13181339     0.36400
C274        C  0.55837686  0.46624808  0.06430937     0.40000
C275        C  0.44183060  0.34813786  0.08799791     0.39100
C276        C  0.59843505  0.44480379  0.10447052     0.36000
C277        C  0.56183842  0.33346567  0.10298393     0.36700
C278        C  0.59125897  0.40016861  0.22197854     0.39900
N279        N  0.41009427  0.32879402  0.08488945    -0.38100
N280        N  0.46497770  0.30318739  0.14695268    -0.39700
N281        N  0.57354615  0.49464503  0.05166576    -0.37400
N282        N  0.63012045  0.46426919  0.10780968    -0.39800
N283        N  0.54734480  0.44178878  0.18171659    -0.39600
N284        N  0.59607832  0.41307813  0.24622899    -0.37200
N285        N  0.60100124  0.28763382  0.14490667    -0.38300
N286        N  0.55612625  0.32044777  0.07872498    -0.39900
C287        C  0.48671035  0.34079537  0.39188886    -0.04900
C288        C  0.51374006  0.36787226  0.37195996     0.09300
C289        C  0.52140432  0.40478699  0.37289157    -0.02300
C290        C  0.50397935  0.41514647  0.39500613    -0.00500
C291        C  0.47772922  0.38830970  0.41554584    -0.04200
C292        C  0.46846155  0.35094891  0.41344890     0.02900
C293        C  0.53634869  0.35849196  0.35153652     0.09700
C294        C  0.54776785  0.43221725  0.35135220     0.35600
C295        C  0.44078466  0.32326801  0.43405869     0.39000
C296        C  0.52224076  0.34103905  0.32297195    -0.04500
C297        C  0.54494571  0.33490172  0.30290935     0.02600
C298        C  0.58175756  0.34616497  0.31142726    -0.04100
C299        C  0.59547246  0.36264770  0.34031671    -0.00300
C300        C  0.57286654  0.36887712  0.36030608    -0.02900
C301        C  0.48476585  0.33041531  0.31395246     0.36400
C302        C  0.63287279  0.37318676  0.34949211     0.40000
C303        C  0.53094054  0.31823199  0.27304846     0.39100
C304        C  0.58740464  0.38675152  0.38969891     0.36000
C305        C  0.47840727  0.30274956  0.39071685     0.36700
C306        C  0.51424567  0.45373308  0.39754119     0.39900
N307        N  0.51985726  0.30505105  0.24917788    -0.38100
N308        N  0.45482804  0.32193925  0.30684395    -0.39700
N309        N  0.66262357  0.38150605  0.35702245    -0.37400
N310        N  0.59897849  0.40121558  0.41307347    -0.39800
N311        N  0.56870314  0.45399995  0.33406433    -0.39600
N312        N  0.52264210  0.48456491  0.39967061    -0.37200
N313        N  0.41867454  0.30134153  0.45058888    -0.38300
N314        N  0.47169469  0.27234633  0.38978982    -0.39900
C315        C  0.18008960  0.62431309  0.16516295    -0.04900
C316        C  0.19154780  0.63669103  0.13473790     0.09300
C317        C  0.22986063  0.65850161  0.12775894    -0.02300
C318        C  0.25653359  0.66800852  0.15128349    -0.00500
C319        C  0.24497488  0.65320133  0.18124726    -0.04200
C320        C  0.20651976  0.63083342  0.18789825     0.02900
C321        C  0.16262986  0.62537744  0.11033028     0.09700
C322        C  0.24178005  0.67010602  0.09626769     0.35600
C323        C  0.19366311  0.61365405  0.21798286     0.39000
C324        C  0.15509185  0.65173245  0.09725580    -0.04500
C325        C  0.12481626  0.64003477  0.07711427     0.02600
C326        C  0.10117757  0.60191126  0.07097040    -0.04100
C327        C  0.10881840  0.57557274  0.08366155    -0.00300
C328        C  0.13997517  0.58734538  0.10275246    -0.02900
C329        C  0.17779109  0.69069743  0.10514097     0.36400
C330        C  0.08454314  0.53641605  0.07698463     0.40000
C331        C  0.11774886  0.66709690  0.06266743     0.39100
C332        C  0.14831591  0.56022919  0.11516969     0.36000
C333        C  0.14080875  0.60438971  0.17301763     0.36700
C334        C  0.29577522  0.69155633  0.14428349     0.39900
N335        N  0.11201171  0.68847591  0.05088191    -0.38100
N336        N  0.19592571  0.72183367  0.11130301    -0.39700
N337        N  0.06503414  0.50520570  0.07167120    -0.37400
N338        N  0.15482924  0.53858341  0.12523965    -0.39800
N339        N  0.25125000  0.67926990  0.07111433    -0.39600
N340        N  0.32707137  0.71051959  0.13873240    -0.37200
N341        N  0.18308452  0.59923652  0.24166566    -0.38300
N342        N  0.10950105  0.58851679  0.17915609    -0.39900
C343        C  0.18124422  0.65416979  0.32082650    -0.04900
C344        C  0.17864636  0.63842147  0.35006763     0.09300
C345        C  0.20511009  0.62913488  0.35941354    -0.02300
C346        C  0.23277774  0.63326917  0.33873490    -0.00500
C347        C  0.23515418  0.64854071  0.30916445    -0.04200
C348        C  0.21017797  0.66043342  0.30076535     0.02900
C349        C  0.14722459  0.63032657  0.37083642     0.09700
C350        C  0.20405924  0.61584027  0.39051880     0.35600
C351        C  0.21372144  0.67873995  0.27140339     0.39000
C352        C  0.11586373  0.59414858  0.37193459    -0.04500
C353        C  0.08782758  0.58510931  0.39384299     0.02600
C354        C  0.09043458  0.61265471  0.41398420    -0.04100
C355        C  0.12075762  0.64951346  0.41145029    -0.00300
C356        C  0.14939589  0.65821366  0.39014647    -0.02900
C357        C  0.11286463  0.56613790  0.35075357     0.36400
C358        C  0.12286307  0.67819035  0.43128065     0.40000
C359        C  0.05716697  0.54708087  0.39653172     0.39100
C360        C  0.18159244  0.69551247  0.38853017     0.36000
C361        C  0.15370000  0.66331908  0.31125153     0.36700
C362        C  0.25959351  0.62312636  0.34834979     0.39900
N363        N  0.03278249  0.51669479  0.39863158    -0.38100
N364        N  0.11050318  0.54394941  0.33371104    -0.39700
N365        N  0.12459559  0.70112013  0.44708216    -0.37400
N366        N  0.20740480  0.72518200  0.38711004    -0.39800
N367        N  0.20337208  0.60563269  0.41545242    -0.39600
N368        N  0.28104402  0.61511112  0.35595381    -0.37200
N369        N  0.21671083  0.69364844  0.24813944    -0.38300
N370        N  0.13163138  0.67043698  0.30354311    -0.39900
C371        C  0.34683665  0.56786867  0.13576004    -0.04900
C372        C  0.37037784  0.55423063  0.14341511     0.09300
C373        C  0.38472383  0.55873478  0.17344920    -0.02300
C374        C  0.37614396  0.57741010  0.19570709    -0.00500
C375        C  0.35286479  0.59159945  0.18805534    -0.04200
C376        C  0.33783333  0.58626064  0.15806964     0.02900
C377        C  0.38042589  0.53512026  0.11989874     0.09700
C378        C  0.40840381  0.54404336  0.18135626     0.35600
C379        C  0.31410508  0.60072237  0.14976653     0.39000
C380        C  0.41549815  0.55442148  0.10535751    -0.04500
C381        C  0.42611145  0.53572870  0.08479034     0.02600
C382        C  0.40121134  0.49798307  0.07796716    -0.04100
C383        C  0.36594055  0.47882174  0.09217823    -0.00300
C384        C  0.35568207  0.49728507  0.11332388    -0.02900
C385        C  0.44039725  0.59363578  0.11135353     0.36400
C386        C  0.34024548  0.44012731  0.08492183     0.40000
C387        C  0.46239406  0.55534726  0.07022373     0.39100
C388        C  0.31975765  0.47742978  0.12845352     0.36000
C389        C  0.33247468  0.56354687  0.10471547     0.36700
C390        C  0.39073676  0.58115833  0.22667135     0.39900
N391        N  0.49128688  0.57089766  0.05850442    -0.38100
N392        N  0.46011599  0.62496033  0.11609379    -0.39700
N393        N  0.31978481  0.40925369  0.07909647    -0.37400
N394        N  0.29109958  0.46171300  0.14054686    -0.39800
N395        N  0.42731365  0.53232259  0.18747767    -0.39600
N396        N  0.40250680  0.58417727  0.25129478    -0.37200
N397        N  0.29506518  0.61215409  0.14323231    -0.38300
N398        N  0.32103545  0.56015072  0.07994001    -0.39900
C399        C  0.39223207  0.52014928  0.37907680    -0.04900
C400        C  0.35537468  0.51262460  0.37852523     0.09300
C401        C  0.32806369  0.48434334  0.39748375    -0.02300
C402        C  0.33804407  0.46461439  0.41785400    -0.00500
C403        C  0.37534786  0.47338640  0.41932696    -0.04200
C404        C  0.40235031  0.50108436  0.39978567     0.02900
C405        C  0.34641800  0.53601818  0.35861906     0.09700
C406        C  0.29008674  0.47635793  0.39662984     0.35600
C407        C  0.44106980  0.51165009  0.40236212     0.39000
C408        C  0.32909086  0.52256615  0.33000369    -0.04500
C409        C  0.32598013  0.54659478  0.30908363     0.02600
C410        C  0.34156032  0.58480302  0.31629274    -0.04100
C411        C  0.35807801  0.59787075  0.34543552    -0.00300
C412        C  0.35970435  0.57329327  0.36674977    -0.02900
C413        C  0.31609982  0.48437625  0.32153224     0.36400
C414        C  0.37356359  0.63656297  0.35359721     0.40000
C415        C  0.30827858  0.53199090  0.27957046     0.39100
C416        C  0.37609126  0.58647884  0.39686990     0.36000
C417        C  0.42002522  0.54841381  0.35883584     0.36700
C418        C  0.31052468  0.43668812  0.43842880     0.39900
N419        N  0.29395201  0.52020873  0.25615244    -0.38100
N420        N  0.30589361  0.45397320  0.31477929    -0.39700
N421        N  0.38619012  0.66750344  0.35996793    -0.37400
N422        N  0.38914196  0.59675463  0.42092414    -0.39800
N423        N  0.25973176  0.46986227  0.39591564    -0.39600
N424        N  0.28872728  0.41465806  0.45509171    -0.37200
N425        N  0.47197362  0.52026456  0.40459422    -0.38300
N426        N  0.44206508  0.57107399  0.34272308    -0.39900
C427        C  0.45691443  0.83038903  0.17993958    -0.04900
C428        C  0.46368932  0.82187351  0.15026473     0.09300
C429        C  0.44864849  0.78441124  0.14163643    -0.02300
C430        C  0.42712827  0.75555430  0.16281544    -0.00500
C431        C  0.41905326  0.76409562  0.19209457    -0.04200
C432        C  0.43330636  0.80171846  0.20023356     0.02900
C433        C  0.48456685  0.85268274  0.12766364     0.09700
C434        C  0.45412642  0.77558470  0.11061603     0.35600
C435        C  0.42289249  0.81131877  0.22904588     0.39000
C436        C  0.52121575  0.86343441  0.11904504    -0.04500
C437        C  0.54083124  0.89303670  0.09809897     0.02600
C438        C  0.52435171  0.91276426  0.08676630    -0.04100
C439        C  0.48865866  0.90349856  0.09683864    -0.00300
C440        C  0.46823586  0.87264899  0.11628125    -0.02900
C441        C  0.53864109  0.84407009  0.13177068     0.36400
C442        C  0.47285202  0.92549263  0.08666603     0.40000
C443        C  0.57784518  0.90322902  0.08805923     0.39100
C444        C  0.43009889  0.86093554  0.12405996     0.36000
C445        C  0.47391496  0.86890022  0.18939185     0.36700
C446        C  0.41111048  0.71708455  0.15369925     0.39900
N447        N  0.60742432  0.91149499  0.08003217    -0.38100
N448        N  0.55247158  0.82855061  0.14195898    -0.39700
N449        N  0.46059782  0.94338163  0.07868782    -0.37400
N450        N  0.39964798  0.85152247  0.13016756    -0.39800
N451        N  0.45838284  0.76852907  0.08582989    -0.39600
N452        N  0.39811687  0.68633998  0.14654150    -0.37200
N453        N  0.41411845  0.81916591  0.25165574    -0.38300
N454        N  0.48755442  0.89961908  0.19681796    -0.39900
C455        C  0.49589246  0.84503128  0.40510277    -0.04900
C456        C  0.46947299  0.84548010  0.38521394     0.09300
C457        C  0.46395136  0.87591282  0.38551812    -0.02300
C458        C  0.48307377  0.90472721  0.40683619    -0.00500
C459        C  0.50978033  0.90459033  0.42665220    -0.04200
C460        C  0.51630872  0.87470773  0.42554784     0.02900
C461        C  0.44779068  0.81439217  0.36327300     0.09700
C462        C  0.43917849  0.87793974  0.36328261     0.35600
C463        C  0.54359080  0.87421703  0.44583683     0.39000
C464        C  0.40995836  0.78816220  0.36901730    -0.08500
C465        C  0.38850217  0.76114201  0.34675487     0.02600
C466        C  0.40511312  0.75962571  0.31895097    -0.04100
C467        C  0.44339150  0.78540777  0.31373442    -0.00300
C468        C  0.46445049  0.81282024  0.33569809    -0.02900
C469        C  0.39318909  0.78917865  0.39787706     0.36400
C470        C  0.46103687  0.78506801  0.28513441     0.40000
C471        C  0.34950162  0.73477179  0.35268759     0.39100
C472        C  0.50316590  0.84020241  0.32959763     0.36000
C473        C  0.50226976  0.81418814  0.40429642     0.36700
C474        C  0.47411858  0.93372797  0.40916965     0.39900
N475        N  0.31833992  0.71393886  0.35742633    -0.38100
N476        N  0.37992873  0.79003267  0.42094951    -0.39700
N477        N  0.47523298  0.78496137  0.26236107    -0.37400
N478        N  0.53404003  0.86206768  0.32481882    -0.39800
N479        N  0.41974926  0.87966551  0.34526642    -0.39600
N480        N  0.46671513  0.95666871  0.41114629    -0.37200
N481        N  0.56509171  0.87373137  0.46227608    -0.38300
N482        N  0.50758440  0.78972576  0.40355379    -0.39900
O483        O  0.27187270  0.62776936  0.78271036    -0.81200
C484        C  0.39561061  0.73396546  0.71290277     0.98100
O485        O  0.37134057  0.73765960  0.72647945    -0.70300
O486        O  0.30181603  0.69293686  0.71194735    -0.73900
Al487      Al  0.32874092  0.70658797  0.74980614     1.49000
C488        C  0.27417376  0.66149344  0.70568000     0.93400
O489        O  0.31324223  0.60827720  0.71322803    -0.80200
O490        O  0.36933045  0.64301504  0.78808797    -0.73700
Al491      Al  0.29529704  0.62124110  0.74812184     1.90100
O492        O  0.37188938  0.63500287  0.72608874    -0.72800
O493        O  0.39986906  0.71475250  0.78027951    -0.72600
O494        O  0.39877416  0.70611241  0.71797179    -0.78300
O495        O  0.35477364  0.72577617  0.78750780    -0.76500
O496        O  0.33495737  0.66729938  0.75023766    -1.12600
O497        O  0.28450774  0.68436734  0.77315021    -0.71800
C498        C  0.26620305  0.65405911  0.78737382     0.98900
C499        C  0.34498024  0.61246439  0.70972493     0.95300
Al500      Al  0.38076744  0.67408767  0.75287038     1.55600
O501        O  0.26819890  0.63305181  0.72043439    -0.76400
C502        C  0.38640786  0.73120942  0.79446191     0.99500
C503        C  0.34185897  0.61065345  0.79192741     0.94300
O504        O  0.31342640  0.59903608  0.77541268    -0.81800
O505        O  0.62917534  0.27995663  0.71468637    -0.81200
C506        C  0.72553188  0.39348910  0.79649863     0.98100
O507        O  0.73284734  0.37236683  0.78146966    -0.70300
O508        O  0.68519187  0.30175171  0.79086277    -0.73900
Al509      Al  0.70349363  0.33096555  0.75503051     1.49000
C510        C  0.65333192  0.27348725  0.79413117     0.93400
O511        O  0.60155550  0.31305848  0.78431319    -0.80200
O512        O  0.65021715  0.37829035  0.71436920    -0.73700
Al513      Al  0.61864381  0.29919583  0.74966244     1.90100
O514        O  0.62911601  0.37273422  0.77448734    -0.72800
O515        O  0.71900068  0.40637270  0.73053417    -0.72600
O516        O  0.69719076  0.39537666  0.79076176    -0.78300
O517        O  0.72651833  0.35969627  0.71926874    -0.76500
O518        O  0.66499015  0.33798820  0.75245857    -1.12600
O519        O  0.68266772  0.28762965  0.72949901    -0.71800
C520        C  0.65423195  0.27212324  0.71259791     0.98900
C521        C  0.60500436  0.34424537  0.78873003     0.95300
Al522      Al  0.67310024  0.38410383  0.75252471     1.55600
O523        O  0.62652704  0.26796993  0.77707963    -0.76400
C524        C  0.73497029  0.39295546  0.71551689     0.99500
C525        C  0.61791863  0.35318750  0.70725261     0.94300
O526        O  0.60136255  0.32261358  0.72166880    -0.81800
N527        N  0.94373821  0.54452288  0.00040652    -0.36000
N528        N  0.99787031  0.57196310  0.95086714    -0.56600
N529        N  0.05641027  0.59171002  0.99471470    -0.36000
N530        N  0.00296016  0.56425076  0.54624117    -0.56600
C531        C  0.92129049  0.52952221  0.97572618     0.27600
C532        C  0.92385220  0.52220250  0.52780541     0.27600
C533        C  0.07443553  0.59442689  0.96822999     0.27600
C534        C  0.07851884  0.59686879  0.51941638     0.27600
C535        C  0.96760876  0.56522277  0.93472950     0.36200
C536        C  0.02717323  0.59080953  0.93183770     0.36200
C537        C  0.97452547  0.55301894  0.56627772     0.36200
C538        C  0.03448122  0.58221923  0.56291811     0.36200
C539        C  0.88647367  0.50138336  0.98536410    -0.21300
C540        C  0.88836056  0.49451203  0.51945753    -0.21300
C541        C  0.10709126  0.59486610  0.97457924    -0.21300
C542        C  0.11138832  0.60146237  0.50772752    -0.21300
C543        C  0.97769824  0.58006184  0.90529827    -0.22400
C544        C  0.01561016  0.59637709  0.90347557    -0.22400
C545        C  0.98800182  0.56351665  0.59590515    -0.22400
C546        C  0.02609688  0.58211124  0.59376629    -0.22400
C547        C  0.93085833  0.54148488  0.94485376    -0.17700
C548        C  0.93664261  0.53079228  0.55843223    -0.17700
C549        C  0.07047180  0.59563019  0.55103103    -0.17700
C550        C  0.06333872  0.59883928  0.93865460    -0.17700
H551        H  0.86237291  0.48425320  0.97124160     0.15200
H552        H  0.86594677  0.47546515  0.53446786     0.15200
H553        H  0.12777250  0.59729132  0.95834028     0.15200
H554        H  0.13452977  0.60346959  0.52050151     0.15200
H555        H  0.95948409  0.57805478  0.88675991     0.13500
H556        H  0.03253120  0.60950728  0.88328060     0.13500
H557        H  0.97205505  0.55774045  0.61689939     0.13500
H558        H  0.04538641  0.59347971  0.61279570     0.13500
H559        H  0.96988530  0.56844615  0.00044319     0.26700
H560        H  0.03392335  0.59545697  0.99721155     0.26700
N561        N  0.40283466  0.46149710  0.99983738    -0.36000
N562        N  0.44358645  0.44558536  0.54429893    -0.56600
N563        N  0.46462539  0.41132717  0.49665608    -0.36000
N564        N  0.42359096  0.42706512  0.95260437    -0.56600
C565        C  0.40070858  0.47994012  0.52310773     0.27600
C566        C  0.39531399  0.47467027  0.97406356     0.27600
C567        C  0.48693893  0.41290202  0.51981569     0.27600
C568        C  0.47541365  0.40230406  0.97155740     0.27600
C569        C  0.42732784  0.45818587  0.56355131     0.36200
C570        C  0.46071696  0.43251631  0.56224754     0.36200
C571        C  0.39986184  0.43310986  0.93621851     0.36200
C572        C  0.43191112  0.40608824  0.93486851     0.36200
C573        C  0.39084897  0.50501320  0.51269526    -0.21300
C574        C  0.39201203  0.50501183  0.98129903    -0.21300
C575        C  0.51383792  0.40627671  0.50831008    -0.21300
C576        C  0.50565464  0.39852644  0.97823765    -0.21300
C577        C  0.43462906  0.45370226  0.59386547    -0.22400
C578        C  0.45585371  0.43744662  0.59305289    -0.22400
C579        C  0.39253920  0.41538965  0.90805656    -0.22400
C580        C  0.41303329  0.39830981  0.90715769    -0.22400
C581        C  0.40858997  0.47643251  0.55408086    -0.17700
C582        C  0.38970707  0.45912307  0.94439420    -0.17700
C583        C  0.45968718  0.39786167  0.94193399    -0.17700
C584        C  0.48275768  0.41847998  0.55125656    -0.17700
H585        H  0.38825058  0.52527961  0.52599373     0.15200
H586        H  0.38590632  0.52152764  0.96584629     0.15200
H587        H  0.53536766  0.40490312  0.52092623     0.15200
H588        H  0.52182119  0.39266089  0.96236994     0.15200
H589        H  0.42617589  0.46195222  0.61437548     0.13500
H590        H  0.46697691  0.43066623  0.61287293     0.13500
H591        H  0.37559437  0.41617929  0.88958566     0.13500
H592        H  0.41487852  0.38305027  0.88794401     0.13500
H593        H  0.40274205  0.43676938  0.00190128     0.26700
H594        H  0.43984852  0.41080381  0.49920608     0.26700
N595        N  0.54317446  0.94757769  0.50469914    -0.36000
N596        N  0.57292947  0.00634538  0.55003353    -0.56600
N597        N  0.59198193  0.06042367  0.50189651    -0.36000
N598        N  0.56424249  0.99980064  0.95560846    -0.56600
C599        C  0.52805870  0.92810975  0.53089313     0.27600
C600        C  0.52725907  0.92382519  0.98115797     0.27600
C601        C  0.59478813  0.08104130  0.52666348     0.27600
C602        C  0.58881026  0.07615605  0.97468617     0.27600
C603        C  0.56572475  0.97759641  0.56868194     0.36200
C604        C  0.59098095  0.03728444  0.56723751     0.36200
C605        C  0.55690671  0.96975084  0.93899326     0.36200
C606        C  0.58130213  0.02928315  0.93638558     0.36200
C607        C  0.49746383  0.89362534  0.52389273    -0.21300
C608        C  0.50004457  0.88947208  0.99237000    -0.21300
C609        C  0.59520023  0.11288455  0.51715897    -0.21300
C610        C  0.58968947  0.10851475  0.98285403    -0.21300
C611        C  0.57956976  0.99027244  0.59790203    -0.22400
C612        C  0.59563966  0.02823311  0.59698633    -0.22400
C613        C  0.56935714  0.98009047  0.90902770    -0.22400
C614        C  0.58514579  0.01800515  0.90742185    -0.22400
C615        C  0.54173991  0.94011511  0.56090275    -0.17700
C616        C  0.53473779  0.93290334  0.94963537    -0.17700
C617        C  0.58999009  0.06544956  0.94412662    -0.17700
C618        C  0.59876111  0.07266332  0.55743911    -0.17700
H619        H  0.47968666  0.87150218  0.53969351     0.15200
H620        H  0.48045007  0.86541046  0.97927415     0.15200
H621        H  0.59778477  0.13515211  0.53141226     0.15200
H622        H  0.58893269  0.12864338  0.96761581     0.15200
H623        H  0.57676933  0.97374845  0.61808300     0.13500
H624        H  0.60784544  0.04682540  0.61630121     0.13500
H625        H  0.56639566  0.96205032  0.89016530     0.13500
H626        H  0.59690710  0.03509987  0.88704594     0.13500
H627        H  0.56845518  0.97233400  0.50282394     0.26700
H628        H  0.59565857  0.03782048  0.50169398     0.26700
C629        C  0.65401587  0.15440338  0.61100916    -0.04900
C630        C  0.62521179  0.15627463  0.62601595     0.09300
C631        C  0.58772091  0.13008028  0.61907452    -0.02300
C632        C  0.57918954  0.10277500  0.59667427    -0.00500
C633        C  0.60804108  0.10149195  0.58121877    -0.04200
C634        C  0.64544578  0.12737699  0.58831913     0.02900
C635        C  0.63441599  0.18647087  0.64858097     0.09700
C636        C  0.55792035  0.13115505  0.63499770     0.35600
C637        C  0.67503356  0.12641820  0.57198153     0.39000
C638        C  0.64936603  0.22348434  0.63822322    -0.04500
C639        C  0.65787584  0.25194024  0.65950103     0.02600
C640        C  0.64922186  0.24314111  0.69085657    -0.04100
C641        C  0.63366118  0.20605832  0.70115084    -0.00300
C642        C  0.62780808  0.17808788  0.68024151    -0.02900
C643        C  0.65552065  0.23215771  0.60562197     0.36400
C644        C  0.62170014  0.19607192  0.73282759     0.40000
C645        C  0.67545144  0.29024857  0.64916583     0.39100
C646        C  0.61512922  0.14068488  0.69125466     0.36000
C647        C  0.69242993  0.18013404  0.61924623     0.36700
C648        C  0.54074442  0.07636738  0.58895958     0.39900
N649        N  0.68963429  0.32081243  0.64087422    -0.38100
N650        N  0.66041478  0.23897478  0.57959701    -0.39700
N651        N  0.61106465  0.18709926  0.75775765    -0.37400
N652        N  0.60526912  0.11090412  0.70000600    -0.39800
N653        N  0.53407955  0.13166011  0.64790640    -0.39600
N654        N  0.51016300  0.05532571  0.58257930    -0.37200
N655        N  0.69867403  0.12581678  0.55882736    -0.38300
N656        N  0.72297410  0.20078236  0.62600984    -0.39900
C657        C  0.58716323  0.12177095  0.87608017    -0.04900
C658        C  0.62272620  0.15405426  0.87823227     0.09300
C659        C  0.64850572  0.15572675  0.90001728    -0.02300
C660        C  0.63835860  0.12566992  0.92021121    -0.00500
C661        C  0.60193134  0.09437286  0.91951769    -0.04200
C662        C  0.57656317  0.09215363  0.89693891     0.02900
C663        C  0.63264390  0.18654209  0.85781426     0.09700
C664        C  0.68520825  0.18871171  0.90210300     0.35600
C665        C  0.53939835  0.05981565  0.89538157     0.39000
C666        C  0.61584149  0.20793791  0.86245314    -0.04500
C667        C  0.62267683  0.23663335  0.84165204     0.02600
C668        C  0.64774288  0.24516111  0.81710288    -0.04100
C669        C  0.66614851  0.22513675  0.81344617    -0.00300
C670        C  0.65787450  0.19524438  0.83331583    -0.02900
C671        C  0.59137780  0.20022149  0.88857802     0.36400
C672        C  0.69197141  0.23383774  0.78814386     0.40000
C673        C  0.60402705  0.25743005  0.84555130     0.39100
C674        C  0.67437475  0.17267284  0.82799239     0.36000
C675        C  0.56136746  0.11935075  0.85256751     0.36700
C676        C  0.66523520  0.12706506  0.94210761     0.39900
N677        N  0.58897636  0.27384177  0.84868336    -0.38100
N678        N  0.57189659  0.19401273  0.90944628    -0.39700
N679        N  0.71236094  0.24054613  0.76786901    -0.37400
N680        N  0.68751249  0.15464977  0.82377565    -0.39800
N681        N  0.71454809  0.21494558  0.90371117    -0.39600
N682        N  0.68645463  0.12799264  0.95969354    -0.37200
N683        N  0.50978317  0.03402184  0.89366537    -0.38300
N684        N  0.54089794  0.11763241  0.83382560    -0.39900
C685        C  0.86991103  0.48052614  0.87992790    -0.04900
C686        C  0.84065694  0.48781870  0.88073078     0.09300
C687        C  0.84237278  0.51494210  0.90075792    -0.02300
C688        C  0.87321730  0.53439527  0.92031846    -0.00500
C689        C  0.90095484  0.52486431  0.92130136    -0.04200
C690        C  0.89919217  0.49781137  0.90106586     0.02900
C691        C  0.80749400  0.46533576  0.86117283     0.09700
C692        C  0.81196928  0.52195972  0.90181841     0.35600
C693        C  0.92650366  0.48646704  0.90292666     0.39000
C694        C  0.78200650  0.42805628  0.86943442    -0.04500
C695        C  0.75467042  0.40436230  0.84837104     0.02600
C696        C  0.75204413  0.41840812  0.81956995    -0.04100
C697        C  0.77589073  0.45633383  0.81215794    -0.00300
C698        C  0.80391788  0.47971801  0.83285548    -0.02900
C699        C  0.78458471  0.41409954  0.89940880     0.36400
C700        C  0.77270294  0.47095570  0.78268530     0.40000
C701        C  0.72956123  0.36554660  0.85611832     0.39100
C702        C  0.82993704  0.51816773  0.82463227     0.36000
C703        C  0.86959127  0.45493200  0.85742755     0.36700
C704        C  0.87633645  0.56385026  0.93971904     0.39900
N705        N  0.70948384  0.33459137  0.86228791    -0.38100
N706        N  0.78677079  0.40325970  0.92341522    -0.39700
N707        N  0.77037203  0.48280367  0.75921236    -0.37400
N708        N  0.85068842  0.54886184  0.81814116    -0.39800
N709        N  0.78758177  0.52738268  0.90278795    -0.39600
N710        N  0.87908961  0.58753496  0.95511566    -0.37200
N711        N  0.94799235  0.47704928  0.90452161    -0.38300
N712        N  0.86935805  0.43477906  0.83925390    -0.39900
C713        C  0.78447216  0.44575727  0.64313959    -0.04900
C714        C  0.82199444  0.46133224  0.65193094     0.09300
C715        C  0.83081055  0.45667649  0.68235902    -0.02300
C716        C  0.80220950  0.43453909  0.70335037    -0.00500
C717        C  0.76476813  0.41718381  0.69393611    -0.04200
C718        C  0.75586278  0.42391400  0.66424172     0.02900
C719        C  0.85217890  0.47997020  0.62853218     0.09700
C720        C  0.86938163  0.47446864  0.69185666     0.35600
C721        C  0.71728412  0.40817377  0.65538389     0.39000
C722        C  0.86415564  0.51641508  0.61827684    -0.04500
C723        C  0.89147040  0.53286889  0.59509268     0.02600
C724        C  0.90859939  0.51390564  0.58362074    -0.04100
C725        C  0.89765742  0.47805746  0.59481758    -0.00300
C726        C  0.86861388  0.46063386  0.61641460    -0.02900
C727        C  0.84842652  0.53689899  0.63163996     0.36400
C728        C  0.91595426  0.45894252  0.58374861     0.40000
C729        C  0.90141397  0.56890761  0.58246234     0.39100
C730        C  0.85476326  0.42236516  0.62556801     0.36000
C731        C  0.77535858  0.45167288  0.61222817     0.36700
C732        C  0.81129136  0.42997716  0.73470047     0.39900
N733        N  0.90914668  0.59748131  0.57207708    -0.38100
N734        N  0.83602618  0.55332777  0.64242967    -0.39700
N735        N  0.93067917  0.44373012  0.57510809    -0.37400
N736        N  0.84329281  0.39174949  0.63278737    -0.39800
N737        N  0.90019594  0.48873797  0.69931394    -0.39600
N738        N  0.81870868  0.42664373  0.75972202    -0.37200
N739        N  0.68653850  0.39577162  0.64829889    -0.38300
N740        N  0.76809759  0.45657022  0.58760993    -0.39900
C741        C  0.57132385  0.35249479  0.63226159    -0.04900
C742        C  0.56313679  0.38063996  0.63801079     0.09300
C743        C  0.57233692  0.39897761  0.66655136    -0.02300
C744        C  0.59093620  0.39028157  0.68885677    -0.00500
C745        C  0.59836139  0.36157540  0.68345958    -0.04200
C746        C  0.58790618  0.34214297  0.65540888     0.02900
C747        C  0.54299031  0.38991118  0.61480333     0.09700
C748        C  0.56170858  0.42612408  0.67325723     0.35600
C749        C  0.59412439  0.31163276  0.65035419     0.39000
C750        C  0.50452566  0.36550187  0.61052485    -0.04500
C751        C  0.48479744  0.37510885  0.59003503     0.02600
C752        C  0.50339967  0.40934443  0.57406763    -0.04100
C753        C  0.54165334  0.43427226  0.57902373    -0.00300
C754        C  0.56156125  0.42435880  0.59907271    -0.02900
C755        C  0.48515268  0.33092720  0.62783939     0.36400
C756        C  0.56040018  0.47001434  0.56337802     0.40000
C757        C  0.44518965  0.35012587  0.58577701     0.39100
C758        C  0.60101101  0.44974477  0.60388261     0.36000
C759        C  0.56268946  0.33432817  0.60257101     0.36700
C760        C  0.60162413  0.41038821  0.71772011     0.39900
N761        N  0.41353299  0.33035832  0.58257712    -0.38100
N762        N  0.46988961  0.30340587  0.64172483    -0.39700
N763        N  0.57528066  0.49846620  0.55080902    -0.37400
N764        N  0.63241717  0.47009537  0.60788860    -0.39800
N765        N  0.55302740  0.44760759  0.67858850    -0.39600
N766        N  0.61025825  0.42664253  0.74060558    -0.37200
N767        N  0.59841690  0.28687021  0.64622632    -0.38300
N768        N  0.55585296  0.31990713  0.57885405    -0.39900
C769        C  0.48535219  0.34071136  0.89140427    -0.04900
C770        C  0.51254231  0.36851033  0.87207160     0.09300
C771        C  0.52044483  0.40543633  0.87418729    -0.02300
C772        C  0.50291582  0.41493700  0.89686217    -0.00500
C773        C  0.47582866  0.38715502  0.91631411    -0.04200
C774        C  0.46625306  0.34986005  0.91289180     0.02900
C775        C  0.53515522  0.35973588  0.85119441     0.09700
C776        C  0.54734495  0.43380145  0.85351170     0.35600
C777        C  0.43723690  0.32114525  0.93192929     0.39000
C778        C  0.52107438  0.34301236  0.82238788    -0.04500
C779        C  0.54370220  0.33708364  0.80209541     0.02600
C780        C  0.58034552  0.34782136  0.81068072    -0.04100
C781        C  0.59400281  0.36355458  0.83979772    -0.00300
C782        C  0.57132905  0.36918577  0.86013698    -0.02900
C783        C  0.48344829  0.33217048  0.81367453     0.36400
C784        C  0.63140993  0.37395352  0.84884531     0.40000
C785        C  0.52974359  0.32095968  0.77206300     0.39100
C786        C  0.58504165  0.38451049  0.89042826     0.36000
C787        C  0.47835879  0.30312578  0.89012984     0.36700
C788        C  0.51417989  0.45356826  0.90130337     0.39900
N789        N  0.51868505  0.30816454  0.74807512    -0.38100
N790        N  0.45331701  0.32332009  0.80688988    -0.39700
N791        N  0.66121802  0.38231318  0.85623131    -0.37400
N792        N  0.59578393  0.39656931  0.91466381    -0.39800
N793        N  0.56868525  0.45642796  0.83696381    -0.39600
N794        N  0.52360005  0.48445686  0.90508298    -0.37200
N795        N  0.41388064  0.29826601  0.94702349    -0.38300
N796        N  0.47310638  0.27323487  0.88925526    -0.39900
C797        C  0.18186132  0.62902416  0.66602459    -0.04900
C798        C  0.19317635  0.64213467  0.63572322     0.09300
C799        C  0.23148677  0.66428712  0.62878733    -0.02300
C800        C  0.25823890  0.67310976  0.65217138    -0.00500
C801        C  0.24680536  0.65703995  0.68180739    -0.04200
C802        C  0.20834264  0.63462500  0.68844451     0.02900
C803        C  0.16406278  0.63105428  0.61144239     0.09700
C804        C  0.24333673  0.67702481  0.59748215     0.35600
C805        C  0.19548568  0.61651891  0.71821040     0.39000
C806        C  0.15614336  0.65740695  0.59891459    -0.04500
C807        C  0.12535086  0.64572788  0.57931625     0.02600
C808        C  0.10188228  0.60766886  0.57284438    -0.04100
C809        C  0.10967205  0.58131080  0.58524596    -0.00300
C810        C  0.14123907  0.59304357  0.60381011    -0.02900
C811        C  0.17908814  0.69636833  0.60670593     0.36400
C812        C  0.08480170  0.54208355  0.57916110     0.40000
C813        C  0.11722956  0.67266588  0.56616969     0.39100
C814        C  0.14984075  0.56586092  0.61560440     0.36000
C815        C  0.14264433  0.60932479  0.67408993     0.36700
C816        C  0.29740882  0.69755237  0.64537611     0.39900
N817        N  0.11052637  0.69395657  0.55560222    -0.38100
N818        N  0.19750385  0.72752406  0.61271001    -0.39700
N819        N  0.06464691  0.51082274  0.57447446    -0.37400
N820        N  0.15652662  0.54410959  0.62512146    -0.39800
N821        N  0.25274089  0.68712730  0.57247741    -0.39600
N822        N  0.32863250  0.71738179  0.64003980    -0.37200
N823        N  0.18488922  0.60137120  0.74162400    -0.38300
N824        N  0.11139509  0.59368645  0.68041777    -0.39900
C825        C  0.18154059  0.65238251  0.82016666    -0.04900
C826        C  0.17847205  0.63573264  0.84906558     0.09300
C827        C  0.20521645  0.62690110  0.85852206    -0.02300
C828        C  0.23400629  0.63286664  0.83837313    -0.00500
C829        C  0.23700712  0.64921950  0.80918316    -0.04200
C830        C  0.21161592  0.66057271  0.80074335     0.02900
C831        C  0.14698397  0.62736398  0.86980346     0.09700
C832        C  0.20309024  0.61189938  0.88913870     0.35600
C833        C  0.21599699  0.68045545  0.77209411     0.39000
C834        C  0.11581489  0.59104309  0.87105791    -0.04500
C835        C  0.08790527  0.58192384  0.89308512     0.02600
C836        C  0.09054118  0.60947492  0.91315034    -0.04100
C837        C  0.12080784  0.64629233  0.91081198    -0.00300
C838        C  0.14925847  0.65515062  0.88933706    -0.02900
C839        C  0.11293875  0.56294692  0.85006166     0.36400
C840        C  0.12306947  0.67467729  0.93112520     0.40000
C841        C  0.05744925  0.54383188  0.89617726     0.39100
C842        C  0.18144264  0.69246815  0.88791932     0.36000
C843        C  0.15316549  0.66018538  0.81019734     0.36700
C844        C  0.26143705  0.62368528  0.84824957     0.39900
N845        N  0.03329041  0.51340329  0.89880531    -0.38100
N846        N  0.11057881  0.54057019  0.83323922    -0.39700
N847        N  0.12481181  0.69725263  0.94738244    -0.37400
N848        N  0.20721000  0.72218449  0.88676618    -0.39800
N849        N  0.20133251  0.60016114  0.91366033    -0.39600
N850        N  0.28349350  0.61662098  0.85612631    -0.37200
N851        N  0.21956974  0.69668404  0.74945768    -0.38300
N852        N  0.13030276  0.66602051  0.80217263    -0.39900
C853        C  0.34419183  0.56591189  0.63453749    -0.04900
C854        C  0.36563979  0.55004952  0.64266496     0.09300
C855        C  0.37933062  0.55367206  0.67284346    -0.02300
C856        C  0.37247581  0.57396055  0.69475122    -0.00500
C857        C  0.35110945  0.59018695  0.68671757    -0.04200
C858        C  0.33661786  0.58568578  0.65658071     0.02900
C859        C  0.37592625  0.53125587  0.61911192     0.09700
C860        C  0.40090429  0.53673576  0.68115323     0.35600
C861        C  0.31540899  0.60280673  0.64776504     0.39000
C862        C  0.41130080  0.55091096  0.60513173    -0.04500
C863        C  0.42249726  0.53266948  0.58466937     0.02600
C864        C  0.39804639  0.49489008  0.57770282    -0.04100
C865        C  0.36249773  0.47533072  0.59138821    -0.00300
C866        C  0.35142300  0.49351000  0.61210082    -0.02900
C867        C  0.43590677  0.59005578  0.61163822     0.36400
C868        C  0.33744637  0.43651908  0.58405723     0.40000
C869        C  0.45888644  0.55282340  0.57032412     0.39100
C870        C  0.31484524  0.47354482  0.62610860     0.36000
C871        C  0.33086959  0.56268754  0.60322504     0.36700
C872        C  0.38734334  0.57776793  0.72561492     0.39900
N873        N  0.48788641  0.56888041  0.55882040    -0.38100
N874        N  0.45529835  0.62130631  0.61686609    -0.39700
N875        N  0.31761959  0.40553616  0.57816244    -0.37400
N876        N  0.28557459  0.45765739  0.63715809    -0.39800
N877        N  0.41808891  0.52317702  0.68759347    -0.39600
N878        N  0.39950243  0.58096893  0.75010500    -0.37200
N879        N  0.29850393  0.61648775  0.64076524    -0.38300
N880        N  0.32039008  0.56011819  0.57818848    -0.39900
C881        C  0.39315753  0.51903396  0.87726715    -0.04900
C882        C  0.35713331  0.51369850  0.87833668     0.09300
C883        C  0.33039594  0.48727616  0.89882000    -0.02300
C884        C  0.34039945  0.46774755  0.91939100    -0.00500
C885        C  0.37721457  0.47500308  0.91967750    -0.04200
C886        C  0.40342551  0.50034256  0.89828259     0.02900
C887        C  0.34841163  0.53716687  0.85826349     0.09700
C888        C  0.29288773  0.48061128  0.89897368     0.35600
C889        C  0.44153054  0.50865984  0.89889247     0.39000
C890        C  0.32921180  0.52287989  0.83046273    -0.04500
C891        C  0.32614198  0.54661978  0.80916511     0.02600
C892        C  0.34296385  0.58520624  0.81539839    -0.04100
C893        C  0.36125111  0.59912645  0.84386160    -0.00300
C894        C  0.36343347  0.57501728  0.86535602    -0.02900
C895        C  0.31398019  0.48393585  0.82327584     0.36400
C896        C  0.37807121  0.63824301  0.85115696     0.40000
C897        C  0.30735552  0.53128462  0.78016215     0.39100
C898        C  0.38195529  0.58923216  0.89463018     0.36000
C899        C  0.41980286  0.54421857  0.85465636     0.36700
C900        C  0.31332600  0.44109971  0.94096904     0.39900
N901        N  0.29229906  0.51894001  0.75709744    -0.38100
N902        N  0.30189041  0.45287442  0.81765877    -0.39700
N903        N  0.39177281  0.66949761  0.85683974    -0.37400
N904        N  0.39669185  0.60044304  0.91799740    -0.39800
N905        N  0.26285158  0.47504825  0.89898658    -0.39600
N906        N  0.29189086  0.41991261  0.95832259    -0.37200
N907        N  0.47199202  0.51551050  0.89939146    -0.38300
N908        N  0.44087246  0.56422064  0.83650494    -0.39900
C909        C  0.46011970  0.82988225  0.67962649    -0.04900
C910        C  0.46492752  0.82127754  0.64936162     0.09300
C911        C  0.44847096  0.78381244  0.64029403    -0.02300
C912        C  0.42788138  0.75503279  0.66173276    -0.00500
C913        C  0.42088316  0.76370022  0.69138128    -0.04200
C914        C  0.43642610  0.80137244  0.69995215     0.02900
C915        C  0.48538299  0.85206447  0.62675531     0.09700
C916        C  0.45130933  0.77495515  0.60858862     0.35600
C917        C  0.42735657  0.81124760  0.72927070     0.39000
C918        C  0.52064854  0.86083957  0.61574013    -0.04500
C919        C  0.53982312  0.89035265  0.59467017     0.02600
C920        C  0.52467724  0.91230387  0.58607113    -0.04100
C921        C  0.49055257  0.90493754  0.59854077    -0.00300
C922        C  0.47006840  0.87377994  0.61759130    -0.02900
C923        C  0.53698640  0.83939987  0.62599365     0.36400
C924        C  0.47631944  0.92913883  0.59113275     0.40000
C925        C  0.57483848  0.89796581  0.58157666     0.39100
C926        C  0.43271223  0.86332637  0.62694149     0.36000
C927        C  0.47921718  0.86829779  0.68968762     0.36700
C928        C  0.41227332  0.71659549  0.65269182     0.39900
N929        N  0.60273808  0.90395987  0.57107391    -0.38100
N930        N  0.54984517  0.82213964  0.63420923    -0.39700
N931        N  0.46543279  0.94884688  0.58536494    -0.37400
N932        N  0.40280548  0.85481957  0.63415631    -0.39800
N933        N  0.45336197  0.76796449  0.58322356    -0.39600
N934        N  0.40001579  0.68592478  0.64560611    -0.37200
N935        N  0.41961501  0.81933013  0.75228342    -0.38300
N936        N  0.49456260  0.89890500  0.69768012    -0.39900
C937        C  0.50214445  0.84436885  0.90341263    -0.04900
C938        C  0.47390723  0.84375527  0.88519739     0.09300
C939        C  0.46656239  0.87291750  0.88738691    -0.02300
C940        C  0.48620197  0.90172820  0.90858807    -0.00500
C941        C  0.51478600  0.90269556  0.92659087    -0.04200
C942        C  0.52288952  0.87404293  0.92378231     0.02900
C943        C  0.45217779  0.81287114  0.86308848     0.09700
C944        C  0.43909969  0.87352830  0.86741775     0.35600
C945        C  0.55230248  0.87495486  0.94210063     0.39000
C946        C  0.41474471  0.78585702  0.86937033    -0.08500
C947        C  0.39313669  0.75896813  0.84709718     0.02600
C948        C  0.40914113  0.75842978  0.81864936    -0.04100
C949        C  0.44729590  0.78448145  0.81313326    -0.00300
C950        C  0.46846303  0.81190313  0.83507753    -0.02900
C951        C  0.39853096  0.78590888  0.89881628     0.36400
C952        C  0.46483293  0.78412947  0.78447720     0.40000
C953        C  0.35473079  0.73138503  0.85387242     0.39100
C954        C  0.50689616  0.83983989  0.82856168     0.36000
C955        C  0.50982190  0.81447348  0.90110671     0.36700
C956        C  0.47612756  0.92975368  0.91260385     0.39900
N957        N  0.32409715  0.70950426  0.85945438    -0.38100
N958        N  0.38570796  0.78602860  0.92233675    -0.39700
N959        N  0.47905206  0.78396969  0.76173203    -0.37400
N960        N  0.53756365  0.86213150  0.82351343    -0.39800
N961        N  0.41735767  0.87410628  0.85135071    -0.39600
N962        N  0.46798071  0.95199608  0.91597239    -0.37200
N963        N  0.57566065  0.87562840  0.95683605    -0.38300
N964        N  0.51602984  0.79068518  0.89912310    -0.39900
loop_ 
_geom_bond_atom_site_label_1 
_geom_bond_atom_site_label_2 
_geom_bond_distance 
_geom_bond_site_symmetry_2 
_ccdc_geom_bond_type 
O1           C16   1.260       .  A
O1           Al9   1.896       .  S
C2           O12   1.260       .  A
C2            O3   1.253       .  A
C2          C431   1.480       .  S
O3           Al5   1.870       .  S
O4            C6   1.260       .  A
O4           Al5   1.909       .  S
Al5          O13   1.904       .  S
Al5          O15   1.880       .  S
Al5          O14   1.798       .  S
C6           O19   1.255       .  A
C6          C319   1.482       .  S
O7           C17   1.261       .  A
O7           Al9   1.898       .  S
O8           C21   1.261       .  A
O8          Al18   1.905       .  S
Al9          O22   1.875       .  S
Al9          O19   1.878       .  S
Al9          O14   1.795       .  S
O10          C17   1.258       .  A
O10         Al18   1.891       .  S
O11          C20   1.258       .  A
O11         Al18   1.892       .  S
O12         Al18   1.907       .  S
O13          C20   1.261       .  A
O14         Al18   1.796       .  S
O15          C16   1.255       .  A
C16         C347   1.478       .  S
C17         C375   1.485       .  S
C20         C466   1.486       .  S
C21          O22   1.253       .  A
C21         C410   1.487       .  S
O23          C38   1.256       .  A
O23         Al31   1.885       .  S
C24          O34   1.255       .  A
C24          O25   1.259       .  A
C24         C214   1.461       .  S
O25         Al27   1.903       .  S
O26          C28   1.257       .  A
O26         Al27   1.877       .  S
Al27         O35   1.889       .  S
Al27         O37   1.912       .  S
Al27         O36   1.791       .  S
C28          O41   1.262       .  A
C28         C186   1.465       .  S
O29          C39   1.256       .  A
O29         Al31   1.890       .  S
O30          C43   1.257       .  A
O30         Al40   1.874       .  S
Al31         O44   1.913       .  S
Al31         O41   1.905       .  S
Al31         O36   1.789       .  S
O32          C39   1.260       .  A
O32         Al40   1.911       .  S
O33          C42   1.261       .  A
O33         Al40   1.916       .  S
O34         Al40   1.877       .  S
O35          C42   1.259       .  A
O36         Al40   1.785       .  S
O37          C38   1.259       .  A
C38         C158   1.471       .  S
C39         C298   1.476       .  S
C42         C235   1.473       .  S
C43          O44   1.261       .  A
C43         C263   1.468       .  S
N45          H77   1.040       .  S
N45          C49   1.351       .  A
N45         C532   1.352       .  A
N46          C53   1.346       .  A
N46          C54   1.349   1_655  A
N47          H78   1.041       .  S
N47          C51   1.353       .  A
N47         C534   1.350       .  A
N48          C55   1.349   1_455  A
N48          C56   1.349       .  A
C49          C57   1.388       .  A
C49          C65   1.413       .  A
C50         N527   1.352       .  A
C50          C66   1.412       .  A
C50          C58   1.387       .  A
C51          C59   1.387       .  A
C51          C68   1.412       .  A
C52         N529   1.349   1_554  A
C52          C67   1.406       .  A
C52          C60   1.387       .  A
C53          C65   1.409       .  A
C53          C61   1.387       .  A
C54          C68   1.408       .  A
C54          C62   1.385       .  A
C55          C63   1.386       .  A
C55          C66   1.409       .  A
C56          C64   1.386       .  A
C56          C67   1.409       .  A
C57         C540   1.373       .  A
C57          H69   1.082       .  S
C58         C539   1.373   1_554  A
C58          H70   1.082       .  S
C59         C542   1.371       .  A
C59          H71   1.082       .  S
C60         C541   1.372   1_554  A
C60          H72   1.082       .  S
C61          C62   1.373   1_655  A
C61          H73   1.082       .  S
C62          H74   1.082       .  S
C63          C64   1.374   1_655  A
C63          H75   1.082       .  S
C64          H76   1.082       .  S
C65         C207   1.484       .  S
C66         C242   1.489       .  S
C67         C326   1.484       .  S
C68         C354   1.492       .  S
N79         H111   1.036       .  S
N79          C84   1.352       .  A
N79         C565   1.352       .  A
N80          C87   1.351       .  A
N80          C88   1.350       .  A
N81         H112   1.037   1_556  S
N81          C85   1.351   1_556  A
N81         C568   1.354       .  A
N82          C89   1.348       .  A
N82          C90   1.349       .  A
C83         N561   1.352   1_554  A
C83          C91   1.386       .  A
C83          C99   1.410       .  A
C84         C100   1.413       .  A
C84          C92   1.388       .  A
C85          C93   1.388       .  A
C85         C102   1.415       .  A
C86         N563   1.354       .  A
C86         C101   1.415       .  A
C86          C94   1.387       .  A
C87          C99   1.410       .  A
C87          C95   1.385       .  A
C88         C102   1.413       .  A
C88          C96   1.387       .  A
C89          C97   1.386       .  A
C89         C100   1.410       .  A
C90          C98   1.385       .  A
C90         C101   1.410       .  A
C91         C574   1.371   1_554  A
C91         H103   1.082       .  S
C92         C573   1.369       .  A
C92         H104   1.082       .  S
C93         C576   1.373   1_554  A
C93         H105   1.082       .  S
C94         C575   1.371       .  A
C94         H106   1.082       .  S
C95          C96   1.373       .  A
C95         H107   1.082       .  S
C96         H108   1.082       .  S
C97          C98   1.373       .  A
C97         H109   1.082       .  S
C98         H110   1.082       .  S
C99         C382   1.490       .  S
C100        C403   1.489       .  S
C101        C291   1.493       .  S
C102        C270   1.488       .  S
N113        H145   1.033       .  S
N113        C117   1.352       .  A
N113        C600   1.354   1_554  A
N114        C121   1.348   1_545  A
N114        C122   1.349       .  A
N115        H146   1.033       .  S
N115        C119   1.353       .  A
N115        C602   1.351   1_554  A
N116        C123   1.349   1_545  A
N116        C124   1.348       .  A
C117        C125   1.388       .  A
C117        C133   1.413       .  A
C118        N595   1.353       .  A
C118        C134   1.410       .  A
C118        C126   1.385       .  A
C119        C127   1.387       .  A
C119        C136   1.413       .  A
C120        N597   1.350       .  A
C120        C135   1.412       .  A
C120        C128   1.387       .  A
C121        C133   1.408       .  A
C121        C129   1.385       .  A
C122        C136   1.410       .  A
C122        C130   1.387       .  A
C123        C131   1.385       .  A
C123        C134   1.408       .  A
C124        C132   1.386       .  A
C124        C135   1.409       .  A
C125        C608   1.371   1_554  A
C125        H137   1.082       .  S
C126        C607   1.371       .  A
C126        H138   1.082       .  S
C127        C610   1.375   1_554  A
C127        H139   1.082       .  S
C128        C609   1.375       .  A
C128        H140   1.083       .  S
C129        C130   1.373   1_565  A
C129        H141   1.082       .  S
C130        H142   1.082       .  S
C131        C132   1.375   1_565  A
C131        H143   1.082       .  S
C132        H144   1.082       .  S
C133        C438   1.485       .  S
C134        C459   1.496       .  S
C135        C179   1.488       .  S
C136        C151   1.491       .  S
C147        C148   1.411       .  A
C147        C152   1.409       .  A
C147        C165   1.450       .  S
C148        C153   1.493       .  S
C148        C149   1.413       .  A
C149        C150   1.407       .  A
C149        C154   1.451       .  S
C150        C151   1.411       .  A
C150        C166   1.451       .  S
C151        C152   1.411       .  A
C152        C155   1.450       .  S
C153        C156   1.413       .  A
C153        C160   1.411       .  A
C154        N171   1.157       .  T
C155        N173   1.157       .  T
C156        C157   1.409       .  A
C156        C161   1.450       .  S
C157        C158   1.408       .  A
C157        C163   1.450       .  S
C158        C159   1.411       .  A
C159        C160   1.408       .  A
C159        C162   1.451       .  S
C160        C164   1.451       .  S
C161        N168   1.157       .  T
C162        N169   1.157       .  T
C163        N167   1.157       .  T
C164        N170   1.157       .  T
C165        N174   1.157       .  T
C166        N172   1.157       .  T
C175        C176   1.411       .  A
C175        C180   1.406       .  A
C175        C193   1.452       .  S
C176        C181   1.486       .  S
C176        C177   1.410       .  A
C177        C178   1.405       .  A
C177        C182   1.451       .  S
C178        C179   1.413       .  A
C178        C194   1.451       .  S
C179        C180   1.413       .  A
C180        C183   1.450       .  S
C181        C184   1.412       .  A
C181        C188   1.410       .  A
C182        N199   1.157       .  T
C183        N201   1.157       .  T
C184        C185   1.405       .  A
C184        C189   1.452       .  S
C185        C186   1.408       .  A
C185        C191   1.451       .  S
C186        C187   1.411       .  A
C187        C188   1.405       .  A
C187        C190   1.452       .  S
C188        C192   1.451       .  S
C189        N196   1.157       .  T
C190        N197   1.157       .  T
C191        N195   1.157       .  T
C192        N198   1.157       .  T
C193        N202   1.157       .  T
C194        N200   1.157       .  T
C203        C204   1.410       .  A
C203        C208   1.402       .  A
C203        C221   1.452       .  S
C204        C209   1.482       .  S
C204        C205   1.409       .  A
C205        C206   1.406       .  A
C205        C210   1.450       .  S
C206        C207   1.411       .  A
C206        C222   1.450       .  S
C207        C208   1.412       .  A
C208        C211   1.451       .  S
C209        C212   1.411       .  A
C209        C216   1.409       .  A
C210        N227   1.157       .  T
C211        N229   1.157       .  T
C212        C213   1.404       .  A
C212        C217   1.451       .  S
C213        C214   1.408       .  A
C213        C219   1.451       .  S
C214        C215   1.410       .  A
C215        C216   1.405       .  A
C215        C218   1.452       .  S
C216        C220   1.451       .  S
C217        N224   1.157       .  T
C218        N225   1.157       .  T
C219        N223   1.157       .  T
C220        N226   1.157       .  T
C221        N230   1.157       .  T
C222        N228   1.157       .  T
C231        C232   1.412       .  A
C231        C236   1.409       .  A
C231        C249   1.450       .  S
C232        C237   1.492       .  S
C232        C233   1.411       .  A
C233        C234   1.409       .  A
C233        C238   1.451       .  S
C234        C235   1.412       .  A
C234        C250   1.451       .  S
C235        C236   1.409       .  A
C236        C239   1.451       .  S
C237        C240   1.411       .  A
C237        C244   1.412       .  A
C238        N255   1.157       .  T
C239        N257   1.157       .  T
C240        C241   1.409       .  A
C240        C245   1.450       .  S
C241        C242   1.410       .  A
C241        C247   1.450       .  S
C242        C243   1.410       .  A
C243        C244   1.407       .  A
C243        C246   1.451       .  S
C244        C248   1.451       .  S
C245        N252   1.157       .  T
C246        N253   1.157       .  T
C247        N251   1.157       .  T
C248        N254   1.157       .  T
C249        N258   1.157       .  T
C250        N256   1.157       .  T
C259        C260   1.412       .  A
C259        C264   1.410       .  A
C259        C277   1.450       .  S
C260        C265   1.487       .  S
C260        C261   1.408       .  A
C261        C262   1.403       .  A
C261        C266   1.451       .  S
C262        C263   1.411       .  A
C262        C278   1.452       .  S
C263        C264   1.409       .  A
C264        C267   1.450       .  S
C265        C268   1.410       .  A
C265        C272   1.411       .  A
C266        N283   1.157       .  T
C267        N285   1.157       .  T
C268        C269   1.406       .  A
C268        C273   1.451       .  S
C269        C270   1.411       .  A
C269        C275   1.450       .  S
C270        C271   1.412       .  A
C271        C272   1.407       .  A
C271        C274   1.451       .  S
C272        C276   1.451       .  S
C273        N280   1.157       .  T
C274        N281   1.157       .  T
C275        N279   1.157       .  T
C276        N282   1.157       .  T
C277        N286   1.157       .  T
C278        N284   1.157       .  T
C287        C288   1.412       .  A
C287        C292   1.410       .  A
C287        C305   1.449       .  S
C288        C293   1.495       .  S
C288        C289   1.411       .  A
C289        C290   1.408       .  A
C289        C294   1.451       .  S
C290        C291   1.412       .  A
C290        C306   1.450       .  S
C291        C292   1.411       .  A
C292        C295   1.450       .  S
C293        C296   1.411       .  A
C293        C300   1.412       .  A
C294        N311   1.157       .  T
C295        N313   1.157       .  T
C296        C297   1.411       .  A
C296        C301   1.450       .  S
C297        C298   1.412       .  A
C297        C303   1.451       .  S
C298        C299   1.409       .  A
C299        C300   1.408       .  A
C299        C302   1.450       .  S
C300        C304   1.451       .  S
C301        N308   1.157       .  T
C302        N309   1.157       .  T
C303        N307   1.157       .  T
C304        N310   1.157       .  T
C305        N314   1.157       .  T
C306        N312   1.157       .  T
C315        C316   1.409       .  A
C315        C320   1.402       .  A
C315        C333   1.454       .  S
C316        C321   1.494       .  S
C316        C317   1.414       .  A
C317        C318   1.413       .  A
C317        C322   1.450       .  S
C318        C319   1.414       .  A
C318        C334   1.451       .  S
C319        C320   1.417       .  A
C320        C323   1.453       .  S
C321        C324   1.412       .  A
C321        C328   1.416       .  A
C322        N339   1.157       .  T
C323        N341   1.157       .  T
C324        C325   1.407       .  A
C324        C329   1.450       .  S
C325        C326   1.410       .  A
C325        C331   1.451       .  S
C326        C327   1.408       .  A
C327        C328   1.406       .  A
C327        C330   1.451       .  S
C328        C332   1.451       .  S
C329        N336   1.157       .  T
C330        N337   1.157       .  T
C331        N335   1.157       .  T
C332        N338   1.157       .  T
C333        N342   1.157       .  T
C334        N340   1.157       .  T
C343        C344   1.406       .  A
C343        C348   1.406       .  A
C343        C361   1.451       .  S
C344        C349   1.486       .  S
C344        C345   1.410       .  A
C345        C346   1.407       .  A
C345        C350   1.451       .  S
C346        C347   1.412       .  A
C346        C362   1.452       .  S
C347        C348   1.418       .  A
C348        C351   1.452       .  S
C349        C352   1.408       .  A
C349        C356   1.409       .  A
C350        N367   1.157       .  T
C351        N369   1.158       .  T
C352        C353   1.405       .  A
C352        C357   1.451       .  S
C353        C354   1.413       .  A
C353        C359   1.450       .  S
C354        C355   1.413       .  A
C355        C356   1.408       .  A
C355        C358   1.450       .  S
C356        C360   1.451       .  S
C357        N364   1.157       .  T
C358        N365   1.157       .  T
C359        N363   1.157       .  T
C360        N366   1.157       .  T
C361        N370   1.157       .  T
C362        N368   1.157       .  T
C371        C372   1.410       .  A
C371        C376   1.410       .  A
C371        C389   1.450       .  S
C372        C377   1.492       .  S
C372        C373   1.409       .  A
C373        C374   1.407       .  A
C373        C378   1.452       .  S
C374        C375   1.418       .  A
C374        C390   1.453       .  S
C375        C376   1.414       .  A
C376        C379   1.451       .  S
C377        C380   1.411       .  A
C377        C384   1.411       .  A
C378        N395   1.157       .  T
C379        N397   1.157       .  T
C380        C381   1.408       .  A
C380        C385   1.450       .  S
C381        C382   1.411       .  A
C381        C387   1.450       .  S
C382        C383   1.411       .  A
C383        C384   1.408       .  A
C383        C386   1.450       .  S
C384        C388   1.450       .  S
C385        N392   1.157       .  T
C386        N393   1.157       .  T
C387        N391   1.157       .  T
C388        N394   1.157       .  T
C389        N398   1.157       .  T
C390        N396   1.158       .  T
C399        C400   1.410       .  A
C399        C404   1.402       .  A
C399        C417   1.452       .  S
C400        C405   1.489       .  S
C400        C401   1.412       .  A
C401        C402   1.410       .  A
C401        C406   1.450       .  S
C402        C403   1.413       .  A
C402        C418   1.451       .  S
C403        C404   1.411       .  A
C404        C407   1.451       .  S
C405        C408   1.406       .  A
C405        C412   1.411       .  A
C406        N423   1.157       .  T
C407        N425   1.157       .  T
C408        C409   1.408       .  A
C408        C413   1.452       .  S
C409        C410   1.423       .  A
C409        C415   1.453       .  S
C410        C411   1.414       .  A
C411        C412   1.409       .  A
C411        C414   1.451       .  S
C412        C416   1.451       .  S
C413        N420   1.157       .  T
C414        N421   1.157       .  T
C415        N419   1.158       .  T
C416        N422   1.157       .  T
C417        N426   1.157       .  T
C418        N424   1.157       .  T
C427        C428   1.408       .  A
C427        C432   1.404       .  A
C427        C445   1.453       .  S
C428        C433   1.492       .  S
C428        C429   1.413       .  A
C429        C430   1.412       .  A
C429        C434   1.450       .  S
C430        C431   1.412       .  A
C430        C446   1.451       .  S
C431        C432   1.418       .  A
C432        C435   1.453       .  S
C433        C436   1.412       .  A
C433        C440   1.413       .  A
C434        N451   1.157       .  T
C435        N453   1.158       .  T
C436        C437   1.409       .  A
C436        C441   1.450       .  S
C437        C438   1.409       .  A
C437        C443   1.450       .  S
C438        C439   1.409       .  A
C439        C440   1.404       .  A
C439        C442   1.452       .  S
C440        C444   1.451       .  S
C441        N448   1.157       .  T
C442        N449   1.157       .  T
C443        N447   1.157       .  T
C444        N450   1.157       .  T
C445        N454   1.157       .  T
C446        N452   1.157       .  T
C455        C456   1.411       .  A
C455        C460   1.410       .  A
C455        C473   1.450       .  S
C456        C461   1.494       .  S
C456        C457   1.410       .  A
C457        C458   1.407       .  A
C457        C462   1.451       .  S
C458        C459   1.414       .  A
C458        C474   1.450       .  S
C459        C460   1.415       .  A
C460        C463   1.451       .  S
C461        C464   1.412       .  A
C461        C468   1.407       .  A
C462        N479   1.157       .  T
C463        N481   1.157       .  T
C464        C465   1.412       .  A
C464        C469   1.451       .  S
C465        C466   1.414       .  A
C465        C471   1.451       .  S
C466        C467   1.419       .  A
C467        C468   1.408       .  A
C467        C470   1.452       .  S
C468        C472   1.452       .  S
C469        N476   1.157       .  T
C470        N477   1.157       .  T
C471        N475   1.157       .  T
C472        N478   1.157       .  T
C473        N482   1.157       .  T
C474        N480   1.157       .  T
O483        C498   1.260       .  A
O483       Al491   1.894       .  S
C484        O494   1.260       .  A
C484        O485   1.255       .  A
C484        C913   1.478       .  S
O485       Al487   1.875       .  S
O486        C488   1.261       .  A
O486       Al487   1.910       .  S
Al487       O495   1.906       .  S
Al487       O497   1.886       .  S
Al487       O496   1.796       .  S
C488        O501   1.257       .  A
C488        C801   1.485       .  S
O489        C499   1.259       .  A
O489       Al491   1.897       .  S
O490        C503   1.260       .  A
O490       Al500   1.898       .  S
Al491       O504   1.887       .  S
Al491       O501   1.884       .  S
Al491       O496   1.791       .  S
O492        C499   1.258       .  A
O492       Al500   1.892       .  S
O493        C502   1.258       .  A
O493       Al500   1.895       .  S
O494       Al500   1.900       .  S
O495        C502   1.262       .  A
O496       Al500   1.795       .  S
O497        C498   1.255       .  A
C498        C829   1.479       .  S
C499        C857   1.483       .  S
C502        C948   1.487       .  S
C503        O504   1.256       .  A
C503        C892   1.489       .  S
O505        C520   1.256       .  A
O505       Al513   1.882       .  S
C506        O516   1.256       .  A
C506        O507   1.263       .  A
C506        C696   1.466       .  S
O507       Al509   1.917       .  S
O508        C510   1.258       .  A
O508       Al509   1.878       .  S
Al509       O517   1.893       .  S
Al509       O519   1.921       .  S
Al509       O518   1.787       .  S
C510        O523   1.264       .  A
C510        C668   1.470       .  S
O511        C521   1.256       .  A
O511       Al513   1.888       .  S
O512        C525   1.255       .  A
O512       Al522   1.867       .  S
Al513       O526   1.919       .  S
Al513       O523   1.915       .  S
Al513       O518   1.787       .  S
O514        C521   1.259       .  A
O514       Al522   1.908       .  S
O515        C524   1.259       .  A
O515       Al522   1.908       .  S
O516       Al522   1.876       .  S
O517        C524   1.260       .  A
O518       Al522   1.784       .  S
O519        C520   1.261       .  A
C520        C640   1.472       .  S
C521        C780   1.472       .  S
C524        C717   1.470       .  S
C525        O526   1.263       .  A
C525        C745   1.467       .  S
N527        H559   1.039       .  S
N527        C531   1.352   1_554  A
N528        C535   1.346       .  A
N528        C536   1.348   1_655  A
N529        H560   1.039       .  S
N529        C533   1.350       .  A
N530        C537   1.351   1_455  A
N530        C538   1.349       .  A
C531        C539   1.388       .  A
C531        C547   1.414       .  A
C532        C548   1.412       .  A
C532        C540   1.387       .  A
C533        C541   1.387       .  A
C533        C550   1.409       .  A
C534        C549   1.410       .  A
C534        C542   1.387       .  A
C535        C547   1.407       .  A
C535        C543   1.387       .  A
C536        C550   1.406       .  A
C536        C544   1.385       .  A
C537        C545   1.386       .  A
C537        C548   1.410       .  A
C538        C546   1.386       .  A
C538        C549   1.410       .  A
C539        H551   1.082       .  S
C540        H552   1.082       .  S
C541        H553   1.083       .  S
C542        H554   1.082       .  S
C543        C544   1.373   1_655  A
C543        H555   1.082       .  S
C544        H556   1.082       .  S
C545        C546   1.374   1_655  A
C545        H557   1.082       .  S
C546        H558   1.082       .  S
C547        C689   1.487       .  S
C548        C724   1.491       .  S
C549        C808   1.485       .  S
C550        C836   1.485       .  S
N561        H593   1.039   1_556  S
N561        C566   1.352       .  A
N562        C569   1.350       .  A
N562        C570   1.350       .  A
N563        H594   1.034       .  S
N563        C567   1.351       .  A
N564        C571   1.347       .  A
N564        C572   1.348       .  A
C565        C573   1.386       .  A
C565        C581   1.410       .  A
C566        C582   1.413       .  A
C566        C574   1.387       .  A
C567        C575   1.388       .  A
C567        C584   1.414       .  A
C568        C583   1.414       .  A
C568        C576   1.386       .  A
C569        C581   1.409       .  A
C569        C577   1.385       .  A
C570        C584   1.412       .  A
C570        C578   1.387       .  A
C571        C579   1.386       .  A
C571        C582   1.408       .  A
C572        C580   1.385       .  A
C572        C583   1.407       .  A
C573        H585   1.082       .  S
C574        H586   1.082       .  S
C575        H587   1.082       .  S
C576        H588   1.082       .  S
C577        C578   1.372       .  A
C577        H589   1.082       .  S
C578        H590   1.082       .  S
C579        C580   1.374       .  A
C579        H591   1.082       .  S
C580        H592   1.082       .  S
C581        C864   1.488       .  S
C582        C885   1.489       .  S
C583        C773   1.491       .  S
C584        C752   1.487       .  S
N595        H627   1.038       .  S
N595        C599   1.350       .  A
N596        C603   1.347   1_545  A
N596        C604   1.348       .  A
N597        H628   1.036       .  S
N597        C601   1.352       .  A
N598        C605   1.348       .  A
N598        C606   1.348   1_565  A
C599        C607   1.389       .  A
C599        C615   1.411       .  A
C600        C616   1.411       .  A
C600        C608   1.385       .  A
C601        C609   1.387       .  A
C601        C618   1.412       .  A
C602        C617   1.414       .  A
C602        C610   1.387       .  A
C603        C615   1.407       .  A
C603        C611   1.386       .  A
C604        C618   1.409       .  A
C604        C612   1.386       .  A
C605        C613   1.385       .  A
C605        C616   1.408       .  A
C606        C614   1.386       .  A
C606        C617   1.409       .  A
C607        H619   1.082       .  S
C608        H620   1.082       .  S
C609        H621   1.082       .  S
C610        H622   1.083       .  S
C611        C612   1.374   1_565  A
C611        H623   1.082       .  S
C612        H624   1.082       .  S
C613        C614   1.374   1_565  A
C613        H625   1.082       .  S
C614        H626   1.082       .  S
C615        C920   1.482       .  S
C616        C941   1.494       .  S
C617        C661   1.492       .  S
C618        C633   1.488       .  S
C629        C630   1.412       .  A
C629        C634   1.408       .  A
C629        C647   1.451       .  S
C630        C635   1.493       .  S
C630        C631   1.413       .  A
C631        C632   1.407       .  A
C631        C636   1.451       .  S
C632        C633   1.410       .  A
C632        C648   1.451       .  S
C633        C634   1.410       .  A
C634        C637   1.450       .  S
C635        C638   1.413       .  A
C635        C642   1.410       .  A
C636        N653   1.157       .  T
C637        N655   1.157       .  T
C638        C639   1.408       .  A
C638        C643   1.451       .  S
C639        C640   1.408       .  A
C639        C645   1.450       .  S
C640        C641   1.412       .  A
C641        C642   1.407       .  A
C641        C644   1.450       .  S
C642        C646   1.451       .  S
C643        N650   1.157       .  T
C644        N651   1.157       .  T
C645        N649   1.157       .  T
C646        N652   1.157       .  T
C647        N656   1.157       .  T
C648        N654   1.157       .  T
C657        C658   1.412       .  A
C657        C662   1.408       .  A
C657        C675   1.452       .  S
C658        C663   1.490       .  S
C658        C659   1.410       .  A
C659        C660   1.406       .  A
C659        C664   1.451       .  S
C660        C661   1.413       .  A
C660        C676   1.452       .  S
C661        C662   1.414       .  A
C662        C665   1.450       .  S
C663        C666   1.413       .  A
C663        C670   1.410       .  A
C664        N681   1.157       .  T
C665        N683   1.157       .  T
C666        C667   1.407       .  A
C666        C671   1.451       .  S
C667        C668   1.409       .  A
C667        C673   1.451       .  S
C668        C669   1.413       .  A
C669        C670   1.406       .  A
C669        C672   1.452       .  S
C670        C674   1.451       .  S
C671        N678   1.157       .  T
C672        N679   1.157       .  T
C673        N677   1.157       .  T
C674        N680   1.157       .  T
C675        N684   1.157       .  T
C676        N682   1.157       .  T
C685        C686   1.409       .  A
C685        C690   1.402       .  A
C685        C703   1.452       .  S
C686        C691   1.485       .  S
C686        C687   1.409       .  A
C687        C688   1.408       .  A
C687        C692   1.449       .  S
C688        C689   1.412       .  A
C688        C704   1.450       .  S
C689        C690   1.412       .  A
C690        C693   1.451       .  S
C691        C694   1.412       .  A
C691        C698   1.408       .  A
C692        N709   1.157       .  T
C693        N711   1.157       .  T
C694        C695   1.406       .  A
C694        C699   1.451       .  S
C695        C696   1.408       .  A
C695        C701   1.451       .  S
C696        C697   1.412       .  A
C697        C698   1.405       .  A
C697        C700   1.452       .  S
C698        C702   1.451       .  S
C699        N706   1.157       .  T
C700        N707   1.157       .  T
C701        N705   1.157       .  T
C702        N708   1.157       .  T
C703        N712   1.157       .  T
C704        N710   1.157       .  T
C713        C714   1.412       .  A
C713        C718   1.408       .  A
C713        C731   1.450       .  S
C714        C719   1.492       .  S
C714        C715   1.411       .  A
C715        C716   1.408       .  A
C715        C720   1.451       .  S
C716        C717   1.411       .  A
C716        C732   1.451       .  S
C717        C718   1.409       .  A
C718        C721   1.451       .  S
C719        C722   1.411       .  A
C719        C726   1.412       .  A
C720        N737   1.157       .  T
C721        N739   1.157       .  T
C722        C723   1.410       .  A
C722        C727   1.450       .  S
C723        C724   1.411       .  A
C723        C729   1.450       .  S
C724        C725   1.411       .  A
C725        C726   1.407       .  A
C725        C728   1.450       .  S
C726        C730   1.451       .  S
C727        N734   1.157       .  T
C728        N735   1.157       .  T
C729        N733   1.157       .  T
C730        N736   1.157       .  T
C731        N740   1.157       .  T
C732        N738   1.157       .  T
C741        C742   1.413       .  A
C741        C746   1.409       .  A
C741        C759   1.451       .  S
C742        C747   1.487       .  S
C742        C743   1.409       .  A
C743        C744   1.402       .  A
C743        C748   1.452       .  S
C744        C745   1.411       .  A
C744        C760   1.452       .  S
C745        C746   1.410       .  A
C746        C749   1.450       .  S
C747        C750   1.410       .  A
C747        C754   1.412       .  A
C748        N765   1.157       .  T
C749        N767   1.157       .  T
C750        C751   1.405       .  A
C750        C755   1.451       .  S
C751        C752   1.411       .  A
C751        C757   1.451       .  S
C752        C753   1.411       .  A
C753        C754   1.406       .  A
C753        C756   1.451       .  S
C754        C758   1.451       .  S
C755        N762   1.157       .  T
C756        N763   1.157       .  T
C757        N761   1.157       .  T
C758        N764   1.157       .  T
C759        N768   1.157       .  T
C760        N766   1.157       .  T
C769        C770   1.411       .  A
C769        C774   1.409       .  A
C769        C787   1.449       .  S
C770        C775   1.492       .  S
C770        C771   1.411       .  A
C771        C772   1.407       .  A
C771        C776   1.451       .  S
C772        C773   1.412       .  A
C772        C788   1.450       .  S
C773        C774   1.410       .  A
C774        C777   1.449       .  S
C775        C778   1.411       .  A
C775        C782   1.411       .  A
C776        N793   1.157       .  T
C777        N795   1.157       .  T
C778        C779   1.411       .  A
C778        C783   1.450       .  S
C779        C780   1.411       .  A
C779        C785   1.451       .  S
C780        C781   1.409       .  A
C781        C782   1.407       .  A
C781        C784   1.450       .  S
C782        C786   1.451       .  S
C783        N790   1.157       .  T
C784        N791   1.157       .  T
C785        N789   1.157       .  T
C786        N792   1.157       .  T
C787        N796   1.157       .  T
C788        N794   1.157       .  T
C797        C798   1.409       .  A
C797        C802   1.403       .  A
C797        C815   1.454       .  S
C798        C803   1.496       .  S
C798        C799   1.414       .  A
C799        C800   1.415       .  A
C799        C804   1.450       .  S
C800        C801   1.415       .  A
C800        C816   1.451       .  S
C801        C802   1.417       .  A
C802        C805   1.452       .  S
C803        C806   1.413       .  A
C803        C810   1.416       .  A
C804        N821   1.157       .  T
C805        N823   1.157       .  T
C806        C807   1.408       .  A
C806        C811   1.450       .  S
C807        C808   1.410       .  A
C807        C813   1.451       .  S
C808        C809   1.408       .  A
C809        C810   1.406       .  A
C809        C812   1.451       .  S
C810        C814   1.451       .  S
C811        N818   1.157       .  T
C812        N819   1.157       .  T
C813        N817   1.157       .  T
C814        N820   1.157       .  T
C815        N824   1.157       .  T
C816        N822   1.158       .  T
C825        C826   1.406       .  A
C825        C830   1.406       .  A
C825        C843   1.452       .  S
C826        C831   1.485       .  S
C826        C827   1.410       .  A
C827        C828   1.407       .  A
C827        C832   1.451       .  S
C828        C829   1.413       .  A
C828        C844   1.451       .  S
C829        C830   1.419       .  A
C830        C833   1.452       .  S
C831        C834   1.409       .  A
C831        C838   1.410       .  A
C832        N849   1.157       .  T
C833        N851   1.158       .  T
C834        C835   1.405       .  A
C834        C839   1.451       .  S
C835        C836   1.411       .  A
C835        C841   1.450       .  S
C836        C837   1.411       .  A
C837        C838   1.406       .  A
C837        C840   1.451       .  S
C838        C842   1.450       .  S
C839        N846   1.157       .  T
C840        N847   1.157       .  T
C841        N845   1.157       .  T
C842        N848   1.157       .  T
C843        N852   1.157       .  T
C844        N850   1.157       .  T
C853        C854   1.410       .  A
C853        C858   1.411       .  A
C853        C871   1.450       .  S
C854        C859   1.489       .  S
C854        C855   1.408       .  A
C855        C856   1.406       .  A
C855        C860   1.452       .  S
C856        C857   1.418       .  A
C856        C872   1.453       .  S
C857        C858   1.415       .  A
C858        C861   1.451       .  S
C859        C862   1.411       .  A
C859        C866   1.410       .  A
C860        N877   1.157       .  T
C861        N879   1.157       .  T
C862        C863   1.406       .  A
C862        C867   1.451       .  S
C863        C864   1.411       .  A
C863        C869   1.450       .  S
C864        C865   1.411       .  A
C865        C866   1.408       .  A
C865        C868   1.450       .  S
C866        C870   1.450       .  S
C867        N874   1.157       .  T
C868        N875   1.157       .  T
C869        N873   1.157       .  T
C870        N876   1.157       .  T
C871        N880   1.157       .  T
C872        N878   1.157       .  T
C881        C882   1.410       .  A
C881        C886   1.403       .  A
C881        C899   1.452       .  S
C882        C887   1.490       .  S
C882        C883   1.411       .  A
C883        C884   1.410       .  A
C883        C888   1.449       .  S
C884        C885   1.412       .  A
C884        C900   1.451       .  S
C885        C886   1.412       .  A
C886        C889   1.450       .  S
C887        C890   1.406       .  A
C887        C894   1.411       .  A
C888        N905   1.157       .  T
C889        N907   1.157       .  T
C890        C891   1.408       .  A
C890        C895   1.452       .  S
C891        C892   1.422       .  A
C891        C897   1.452       .  S
C892        C893   1.416       .  A
C893        C894   1.409       .  A
C893        C896   1.452       .  S
C894        C898   1.452       .  S
C895        N902   1.157       .  T
C896        N903   1.157       .  T
C897        N901   1.157       .  T
C898        N904   1.157       .  T
C899        N908   1.157       .  T
C900        N906   1.157       .  T
C909        C910   1.408       .  A
C909        C914   1.402       .  A
C909        C927   1.453       .  S
C910        C915   1.489       .  S
C910        C911   1.412       .  A
C911        C912   1.410       .  A
C911        C916   1.451       .  S
C912        C913   1.413       .  A
C912        C928   1.451       .  S
C913        C914   1.418       .  A
C914        C917   1.453       .  S
C915        C918   1.412       .  A
C915        C922   1.413       .  A
C916        N933   1.157       .  T
C917        N935   1.158       .  T
C918        C919   1.408       .  A
C918        C923   1.450       .  S
C919        C920   1.409       .  A
C919        C925   1.450       .  S
C920        C921   1.409       .  A
C921        C922   1.402       .  A
C921        C924   1.452       .  S
C922        C926   1.451       .  S
C923        N930   1.157       .  T
C924        N931   1.157       .  T
C925        N929   1.157       .  T
C926        N932   1.157       .  T
C927        N936   1.157       .  T
C928        N934   1.157       .  T
C937        C938   1.412       .  A
C937        C942   1.410       .  A
C937        C955   1.450       .  S
C938        C943   1.494       .  S
C938        C939   1.410       .  A
C939        C940   1.406       .  A
C939        C944   1.451       .  S
C940        C941   1.413       .  A
C940        C956   1.451       .  S
C941        C942   1.413       .  A
C942        C945   1.451       .  S
C943        C946   1.412       .  A
C943        C950   1.408       .  A
C944        N961   1.157       .  T
C945        N963   1.157       .  T
C946        C947   1.411       .  A
C946        C951   1.451       .  S
C947        C948   1.414       .  A
C947        C953   1.450       .  S
C948        C949   1.419       .  A
C949        C950   1.408       .  A
C949        C952   1.452       .  S
C950        C954   1.452       .  S
C951        N958   1.157       .  T
C952        N959   1.157       .  T
C953        N957   1.157       .  T
C954        N960   1.157       .  T
C955        N964   1.157       .  T
C956        N962   1.157       .  T
