geometry optimzed in LAMMPS
_audit_creation_date              2020-12-01 
_audit_creation_method            'lammps2cif' 
_symmetry_space_group_name_H-M    'P1' 
_symmetry_Int_Tables_number       1 
_symmetry_cell_setting            triclinic 
loop_ 
_symmetry_equiv_pos_as_xyz 
  x,y,z 
_cell_length_a                    74.8950736 
_cell_length_b                    75.2914639342343 
_cell_length_c                    45.13014756992382 
_cell_angle_alpha                 90.20178845569237 
_cell_angle_beta                  89.56713640543151 
_cell_angle_gamma                 129.3497725636586 
loop_ 
_atom_site_label 
_atom_site_type_symbol 
_atom_site_fract_x 
_atom_site_fract_y 
_atom_site_fract_z 
_atom_site_charge 
N1          N  0.58155085  0.57679943  0.16342734    -0.27500
N2          N  0.57607035  0.56114860  0.14361745    -0.35300
C3          C  0.55302074  0.54453000  0.14347394     0.00900
C4          C  0.54352904  0.54993671  0.16439531     0.06900
C5          C  0.56215619  0.57059902  0.17648830    -0.06200
H6          H  0.54377398  0.53058496  0.12767564     0.07500
H7          H  0.56153927  0.58106892  0.19223948     0.08700
Cu8        Cu  0.59993151  0.56574593  0.11422568     0.44200
Cu9        Cu  0.61467217  0.60750828  0.16774681     0.42000
Cu10       Cu  0.65719509  0.62233554  0.11121231     0.43900
N11         N  0.62403989  0.57613469  0.08130924    -0.34900
N12         N  0.64450181  0.59675746  0.07935072    -0.29100
C13         C  0.65378313  0.59876445  0.05263684    -0.05200
C14         C  0.63845101  0.57839427  0.03717255     0.07000
C15         C  0.61984727  0.56452907  0.05617760     0.00800
H16         H  0.66959660  0.61452304  0.04419445     0.08400
H17         H  0.60363049  0.54783176  0.05126572     0.07500
N18         N  0.66342706  0.64430132  0.14549141    -0.36300
N19         N  0.64780194  0.63856465  0.16588213    -0.28500
C20         C  0.65650068  0.65641945  0.18414226    -0.03700
C21         C  0.67865665  0.67449937  0.17486205     0.04900
C22         C  0.68258983  0.66610953  0.15039694     0.03000
H23         H  0.64709212  0.65643292  0.20244030     0.08100
H24         H  0.69816195  0.67511339  0.13710782     0.06900
N25         N  0.34040777  0.46495272  0.17089380    -0.27500
N26         N  0.34522673  0.47478479  0.14460032    -0.35300
C27         C  0.36785580  0.48695999  0.13886032     0.00900
C28         C  0.37781462  0.48491008  0.16283220     0.06900
C29         C  0.35991085  0.47076072  0.18269871    -0.06200
H30         H  0.37630502  0.49608493  0.11838383     0.07500
H31         H  0.36076909  0.46424312  0.20349840     0.08700
Cu32       Cu  0.32063710  0.46930995  0.11622065     0.44200
Cu33       Cu  0.30713096  0.44155059  0.18751822     0.42000
Cu34       Cu  0.26127066  0.42554605  0.13706278     0.43900
N35         N  0.29334480  0.45777897  0.08857737    -0.34900
N36         N  0.27145961  0.44164049  0.09600109    -0.29100
C37         C  0.25828997  0.43578296  0.07189011    -0.05200
C38         C  0.27268080  0.44863798  0.04803124     0.07000
C39         C  0.29472498  0.46261016  0.05964555     0.00800
H40         H  0.23977201  0.42231331  0.07153174     0.08400
H41         H  0.31075506  0.47410006  0.04741590     0.07500
N42         N  0.25582292  0.40884973  0.17675487    -0.36300
N43         N  0.27241015  0.41468610  0.19517079    -0.28500
C44         C  0.26337624  0.39868444  0.21660525    -0.03700
C45         C  0.23993219  0.38199056  0.21157335     0.04900
C46         C  0.23584678  0.38900095  0.18599944     0.03000
H47         H  0.27339979  0.39848438  0.23353348     0.08100
H48         H  0.21993562  0.37944892  0.17361962     0.06900
N49         N  0.33412301  0.45204793  0.69332154    -0.27500
N50         N  0.34044202  0.45925551  0.72088339    -0.35300
C51         C  0.36317522  0.47065453  0.72339576     0.00900
C52         C  0.37168679  0.47050872  0.69617855     0.06900
C53         C  0.35278309  0.45871349  0.67747513    -0.06200
H54         H  0.37272281  0.47802227  0.74380550     0.07500
H55         H  0.35249358  0.45500267  0.65423210     0.08700
Cu56       Cu  0.31797898  0.45242456  0.75445759     0.44200
Cu57       Cu  0.29994461  0.43152042  0.68017481     0.42000
Cu58       Cu  0.25767490  0.41603458  0.73853256     0.43900
N59         N  0.29316893  0.44345955  0.78559945    -0.34900
N60         N  0.27086654  0.43033723  0.77989263    -0.29100
C61         C  0.25936948  0.42697031  0.80513322    -0.05200
C62         C  0.27533532  0.43870759  0.82770435     0.07000
C63         C  0.29652135  0.44879850  0.81449147     0.00800
H64         H  0.24077065  0.41606987  0.80710386     0.08400
H65         H  0.31316337  0.45894509  0.82523779     0.07500
N66         N  0.24950747  0.39950151  0.69811160    -0.36300
N67         N  0.26465573  0.40526211  0.67691673    -0.28500
C68         C  0.25445482  0.38842671  0.65659499    -0.03700
C69         C  0.23201298  0.37114937  0.66564450     0.04900
C70         C  0.22936529  0.37881590  0.69185335     0.03000
H71         H  0.26348195  0.38757723  0.63854056     0.08100
H72         H  0.21471527  0.36903727  0.70683744     0.06900
N73         N  0.57716780  0.56286827  0.68583184    -0.27500
N74         N  0.57074251  0.55145854  0.71108981    -0.35300
C75         C  0.54771342  0.53801504  0.71382787     0.00900
C76         C  0.53898698  0.54101591  0.68914542     0.06900
C77         C  0.55824316  0.55663748  0.67155664    -0.06200
H78         H  0.53813758  0.52761801  0.73314564     0.07500
H79         H  0.55870435  0.56353736  0.65035091     0.08700
Cu80       Cu  0.59331176  0.55601753  0.74233524     0.44200
Cu81       Cu  0.61153503  0.58910354  0.67482301     0.42000
Cu82       Cu  0.65321109  0.60380227  0.73213411     0.43900
N83         N  0.61816243  0.56560174  0.77323029    -0.34900
N84         N  0.64020800  0.58355325  0.76983728    -0.29100
C85         C  0.65129548  0.58728658  0.79531687    -0.05200
C86         C  0.63548146  0.57065569  0.81555648     0.07000
C87         C  0.61463884  0.55726529  0.80081299     0.00800
H88         H  0.66920800  0.60180366  0.79936522     0.08400
H89         H  0.59784682  0.54368370  0.81019144     0.07500
N90         N  0.66127743  0.62318696  0.69439169    -0.36300
N91         N  0.64626478  0.61793549  0.67362465    -0.28500
C92         C  0.65654009  0.63540173  0.65415765    -0.03700
C93         C  0.67915768  0.65239218  0.66292557     0.04900
C94         C  0.68145713  0.64405380  0.68862950     0.03000
H95         H  0.64769491  0.63632968  0.63617516     0.08100
H96         H  0.69633179  0.65299344  0.70297374     0.06900
N97         N  0.51746510  0.99296909  0.19751808    -0.27500
N98         N  0.50669854  0.98780808  0.17184344    -0.35300
C99         C  0.49341167  0.99403425  0.17252251     0.00900
C100        C  0.49564966  0.00346402  0.19985379     0.06900
C101        C  0.51089463  0.00241586  0.21533661    -0.06200
H102        H  0.48315568  0.99221488  0.15416203     0.07500
H103        H  0.51741270  0.00886454  0.23741070     0.08700
Cu104      Cu  0.51040879  0.97361946  0.13532249     0.44200
Cu105      Cu  0.54245681  0.98907711  0.20592078     0.42000
Cu106      Cu  0.55437645  0.96994567  0.13996448     0.43900
N107        N  0.51829093  0.96172728  0.10038591    -0.34900
N108        N  0.53504873  0.96051721  0.10226775    -0.29100
C109        C  0.53799160  0.95437783  0.07587094    -0.05200
C110        C  0.52212303  0.95138872  0.05635320     0.07000
C111        C  0.50997990  0.95632580  0.07264115     0.00800
H112        H  0.55138404  0.95322336  0.07091068     0.08400
H113        H  0.49713679  0.95737806  0.06445854     0.07500
N114        N  0.57293602  0.98009543  0.17850049    -0.36300
N115        N  0.56875393  0.98638635  0.20321742    -0.28500
C116        C  0.58438985  0.99116866  0.22365813    -0.03700
C117        C  0.59925442  0.98805157  0.21079252     0.04900
C118        C  0.59119071  0.98098792  0.18222662     0.03000
H119        H  0.58471732  0.99632027  0.24616095     0.08100
H120        H  0.59820241  0.97691054  0.16501373     0.06900
N121        N  0.37522539  0.05755725  0.18742161    -0.27500
N122        N  0.38305396  0.05790343  0.16088017    -0.35300
C123        C  0.39602561  0.05139785  0.16309499     0.00900
C124        C  0.39664112  0.04683285  0.19243615     0.06900
C125        C  0.38340556  0.05102966  0.20743943    -0.06200
H126        H  0.40462629  0.05032234  0.14466636     0.07500
H127        H  0.37978013  0.04920170  0.23097526     0.08700
Cu128      Cu  0.37705218  0.06804787  0.12246656     0.44200
Cu129      Cu  0.35329336  0.06558117  0.19364450     0.42000
Cu130      Cu  0.34674807  0.08953199  0.12669676     0.43900
N131        N  0.37143754  0.08019114  0.08589526    -0.34900
N132        N  0.36034741  0.08848874  0.08717161    -0.29100
C133        C  0.35873656  0.09412516  0.05959458    -0.05200
C134        C  0.36961400  0.08931599  0.04013073     0.07000
C135        C  0.37728952  0.08036314  0.05766679     0.00800
H136        H  0.34958892  0.10040549  0.05404224     0.08400
H137        H  0.38616007  0.07405623  0.05037919     0.07500
N138        N  0.33033578  0.08362589  0.16703236    -0.36300
N139        N  0.33162263  0.07413080  0.19065832    -0.28500
C140        C  0.31596255  0.06991603  0.21084592    -0.03700
C141        C  0.30451527  0.07742246  0.19957620     0.04900
C142        C  0.31423679  0.08599686  0.17176295     0.03000
H143        H  0.31234663  0.06087051  0.23144448     0.08100
H144        H  0.30925225  0.09256792  0.15541085     0.06900
N145        N  0.37813718  0.04689306  0.67557647    -0.27500
N146        N  0.38892168  0.05228246  0.70119451    -0.35300
C147        C  0.40389517  0.04819159  0.69975960     0.00900
C148        C  0.40272506  0.03972828  0.67196462     0.06900
C149        C  0.38628759  0.03934572  0.65702777    -0.06200
H150        H  0.41453971  0.05071910  0.71806560     0.07500
H151        H  0.38059071  0.03396479  0.63445292     0.08700
Cu152      Cu  0.38342973  0.06453567  0.73819492     0.44200
Cu153      Cu  0.35212581  0.04924555  0.66816496     0.42000
Cu154      Cu  0.34242858  0.07279403  0.73192770     0.43900
N155        N  0.37558621  0.07636879  0.77313439    -0.34900
N156        N  0.36025042  0.07955484  0.77076478    -0.29100
C157        C  0.35765143  0.08592717  0.79724835    -0.05200
C158        C  0.37226794  0.08701607  0.81725663     0.07000
C159        C  0.38323492  0.08063708  0.80117326     0.00800
H160        H  0.34548380  0.08883197  0.80183020     0.08400
H161        H  0.39502190  0.07816272  0.80952735     0.07500
N162        N  0.32450119  0.06283935  0.69247794    -0.36300
N163        N  0.32732614  0.05385077  0.66948699    -0.28500
C164        C  0.31226652  0.04907792  0.64821170    -0.03700
C165        C  0.29950010  0.05543834  0.65843188     0.04900
C166        C  0.30788132  0.06419182  0.68641443     0.03000
H167        H  0.31101979  0.04194923  0.62673654     0.08100
H168        H  0.30222051  0.07100850  0.70142044     0.06900
N169        N  0.51704560  0.97799636  0.68394614    -0.27500
N170        N  0.50638706  0.97449425  0.70939762    -0.35300
C171        C  0.49188071  0.97902091  0.70615216     0.00900
C172        C  0.49321658  0.98578353  0.67727968     0.06900
C173        C  0.50937855  0.98490485  0.66364785    -0.06200
H174        H  0.48117440  0.97763182  0.72377401     0.07500
H175        H  0.51492989  0.98870746  0.64072548     0.08700
Cu176      Cu  0.51135044  0.96408218  0.74841986     0.44200
Cu177      Cu  0.54139708  0.97292945  0.67952210     0.42000
Cu178      Cu  0.55246177  0.95579684  0.74963202     0.43900
N179        N  0.51988675  0.95650882  0.78692953    -0.34900
N180        N  0.53547244  0.95357784  0.78754774    -0.29100
C181        C  0.53873881  0.95068144  0.81579737    -0.05200
C182        C  0.52467911  0.95215961  0.83383864     0.07000
C183        C  0.51270765  0.95552734  0.81469239     0.00800
H184        H  0.55108352  0.94857217  0.82279158     0.08400
H185        H  0.50011260  0.95764232  0.82047301     0.07500
N186        N  0.56866019  0.96073912  0.70955235    -0.36300
N187        N  0.56498021  0.96692095  0.68438242    -0.28500
C188        C  0.57926221  0.96921136  0.66346901    -0.03700
C189        C  0.59267431  0.96450291  0.67621109     0.04900
C190        C  0.58524761  0.95896948  0.70531083     0.03000
H191        H  0.57988457  0.97404564  0.64071450     0.08100
H192        H  0.59183061  0.95451082  0.72243874     0.06900
C193        C  0.77576722  0.86740449  0.27903051     0.86300
C194        C  0.77168123  0.86236328  0.31241482    -0.53900
C195        C  0.77394888  0.84682932  0.32248870     0.09200
C196        C  0.78068401  0.83793145  0.29780210     0.20200
C197        C  0.80038651  0.87519820  0.27429227    -0.54700
C198        C  0.80267463  0.85957124  0.28413514     0.09300
C199        C  0.75970664  0.84380364  0.26389116    -0.54200
C200        C  0.76236132  0.82841558  0.27362036     0.09900
H201        H  0.76769678  0.87092534  0.32703639     0.14400
H202        H  0.78318104  0.82564283  0.30530383     0.00100
H203        H  0.81502819  0.89163745  0.26538544     0.14700
H204        H  0.74795953  0.83995839  0.24623297     0.14500
C205        C  0.93595470  0.81753578  0.27779005     0.86300
C206        C  0.96018633  0.84097508  0.27261994    -0.53900
C207        C  0.96371931  0.85887110  0.28713880     0.09200
C208        C  0.94319773  0.85189186  0.30639170     0.20200
C209        C  0.93425531  0.81492164  0.31163660    -0.54700
C210        C  0.93822408  0.83285744  0.32656747     0.09300
C211        C  0.91929929  0.82220840  0.26955280    -0.54200
C212        C  0.92288599  0.84004418  0.28471381     0.09900
H213        H  0.97388695  0.84396851  0.25930599     0.14400
H214        H  0.94622409  0.86621919  0.31907376     0.00100
H215        H  0.93060141  0.80019591  0.32291474     0.14700
H216        H  0.90569481  0.81207944  0.25331313     0.14500
C217        C  0.74035631  0.00738811  0.27934292     0.86300
C218        C  0.74335514  0.99067235  0.26554237    -0.53900
C219        C  0.76079810  0.99159403  0.27740465     0.09200
C220        C  0.77432968  0.01024610  0.30154322     0.20200
C221        C  0.73862709  0.00322394  0.31298104    -0.54700
C222        C  0.75600845  0.00420214  0.32460735     0.09300
C223        C  0.76438382  0.03109851  0.27525442    -0.54200
C224        C  0.78210376  0.03252812  0.28644941     0.09900
H225        H  0.73221623  0.97893791  0.24796063     0.14400
H226        H  0.78848725  0.01158062  0.31173799     0.00100
H227        H  0.72479669  0.00002713  0.32651369     0.14700
H228        H  0.76792139  0.04592065  0.26477283     0.14500
C229        C  0.95764191  0.23540538  0.29432721     0.86300
C230        C  0.93546281  0.21287132  0.28194579    -0.53900
C231        C  0.93020807  0.19334388  0.29392333     0.09200
C232        C  0.94800726  0.19812691  0.31668265     0.20200
C233        C  0.95458286  0.23331786  0.32820750    -0.54700
C234        C  0.94922041  0.21376120  0.33995429     0.09300
C235        C  0.97630854  0.23278253  0.28834905    -0.54200
C236        C  0.97121902  0.21337882  0.30023383     0.09900
H237        H  0.92504128  0.21252373  0.26500145     0.14400
H238        H  0.94428778  0.18250732  0.32618968     0.00100
H239        H  0.95665496  0.24643752  0.34182115     0.14700
H240        H  0.99203616  0.24445827  0.27567319     0.14500
C241        C  0.11186389  0.17758685  0.28414061     0.86300
C242        C  0.11446897  0.18132987  0.31798182    -0.53900
C243        C  0.11376147  0.19794681  0.32814989     0.09200
C244        C  0.10984160  0.20908805  0.30355354     0.20200
C245        C  0.08851266  0.17223174  0.27820586    -0.54700
C246        C  0.08765772  0.18891899  0.28811878     0.09300
C247        C  0.13030323  0.20159114  0.27084239    -0.54200
C248        C  0.12912016  0.21795919  0.28080657     0.09900
H249        H  0.11672769  0.17156588  0.33282739     0.14400
H250        H  0.10930819  0.22268306  0.31165856     0.00100
H251        H  0.07362337  0.15664634  0.26833721     0.14700
H252        H  0.14343097  0.20535839  0.25525320     0.14500
C253        C  0.15798339  0.04638589  0.27298943     0.86300
C254        C  0.15440079  0.06352325  0.26305506    -0.53900
C255        C  0.13527260  0.05952049  0.27513459     0.09200
C256        C  0.12129165  0.03845448  0.29585668     0.20200
C257        C  0.15760384  0.04686364  0.30703599    -0.54700
C258        C  0.13854712  0.04284316  0.31886423     0.09300
C259        C  0.13484440  0.02274199  0.26487693    -0.54200
C260        C  0.11584167  0.01854297  0.27730406     0.09900
H261        H  0.16647763  0.07804701  0.24869208     0.14400
H262        H  0.10576782  0.03486782  0.30606522     0.00100
H263        H  0.17104972  0.04959997  0.32066746     0.14700
H264        H  0.13282443  0.00982879  0.25108580     0.14500
C265        C  0.77959903  0.85302744  0.59034179     0.86300
C266        C  0.76423867  0.82870454  0.60402353    -0.53900
C267        C  0.76628307  0.81385499  0.59026476     0.09200
C268        C  0.78412372  0.82471521  0.56506574     0.20200
C269        C  0.80413903  0.86027903  0.59291684    -0.54700
C270        C  0.80645219  0.84531145  0.57973042     0.09300
C271        C  0.77449886  0.84957588  0.55715348    -0.54200
C272        C  0.77712565  0.83519934  0.54390863     0.09900
H273        H  0.75393621  0.82396233  0.62397662     0.14400
H274        H  0.78533569  0.81221482  0.55444140     0.00100
H275        H  0.81792198  0.87486297  0.60578738     0.14700
H276        H  0.77035939  0.85886114  0.54466500     0.14500
C277        C  0.94574392  0.81108139  0.59221739     0.86300
C278        C  0.92844899  0.81332442  0.60601749    -0.53900
C279        C  0.93062739  0.83175478  0.59626823     0.09200
C280        C  0.95053702  0.84685858  0.57388044     0.20200
C281        C  0.94355321  0.81211412  0.55848580    -0.54700
C282        C  0.94546937  0.83047948  0.54854109     0.09300
C283        C  0.96955266  0.83432462  0.59909107    -0.54200
C284        C  0.97216382  0.85290457  0.58906881     0.09900
H285        H  0.91488685  0.80071136  0.62129903     0.14400
H286        H  0.95206067  0.86177205  0.56692805     0.00100
H287        H  0.94070112  0.79911603  0.54373886     0.14700
H288        H  0.98393170  0.83665829  0.60926403     0.14500
C289        C  0.72609928  0.97786994  0.58905117     0.86300
C290        C  0.72835382  0.97851384  0.55494025    -0.53900
C291        C  0.74834437  0.98364953  0.54463531     0.09200
C292        C  0.76427264  0.98719220  0.56946598     0.20200
C293        C  0.72930186  0.96051821  0.59877550    -0.54700
C294        C  0.74922631  0.96542615  0.58879675     0.09300
C295        C  0.74836060  0.00166634  0.59825766    -0.54200
C296        C  0.76839505  0.00654012  0.58842008     0.09900
H297        H  0.71649498  0.97696356  0.53949805     0.14400
H298        H  0.78039481  0.99095930  0.56139143     0.00100
H299        H  0.71662847  0.94534611  0.61193214     0.14700
H300        H  0.74804673  0.01410218  0.60989791     0.14500
C301        C  0.94316496  0.20871926  0.61162188     0.86300
C302        C  0.96157357  0.20627285  0.61992392    -0.53900
C303        C  0.96104307  0.19082930  0.60287005     0.09200
C304        C  0.94117203  0.17816141  0.58027652     0.20200
C305        C  0.94656733  0.21344808  0.57806315    -0.54700
C306        C  0.94516272  0.19737929  0.56163964     0.09300
C307        C  0.92032429  0.18414637  0.61491105    -0.54200
C308        C  0.91922226  0.16828658  0.59845666     0.09900
H309        H  0.97387719  0.21539808  0.63763429     0.14400
H310        H  0.93978932  0.16503476  0.56667059     0.00100
H311        H  0.94923390  0.22806792  0.56800678     0.14700
H312        H  0.90601462  0.17969415  0.62862568     0.14500
C313        C  0.11188652  0.16800401  0.58928143     0.86300
C314        C  0.12974082  0.19253486  0.60218527    -0.53900
C315        C  0.12702149  0.20796502  0.59284949     0.09200
C316        C  0.10685083  0.19764633  0.57137895     0.20200
C317        C  0.08843850  0.16162784  0.59784424    -0.54700
C318        C  0.08575486  0.17702737  0.58820289     0.09300
C319        C  0.11411952  0.17193842  0.55559150    -0.54200
C320        C  0.11123475  0.18714224  0.54624528     0.09900
H321        H  0.14312770  0.19777458  0.61782041     0.14400
H322        H  0.10474744  0.21012516  0.56327577     0.00100
H323        H  0.07509286  0.14622124  0.61012720     0.14700
H324        H  0.11772371  0.16335161  0.54033032     0.14500
C325        C  0.16584467  0.04332493  0.57889001     0.86300
C326        C  0.16086448  0.04112121  0.54522030    -0.53900
C327        C  0.14050299  0.03636434  0.53809883     0.09200
C328        C  0.12680162  0.03419015  0.56525916     0.20200
C329        C  0.16423760  0.06172643  0.58905748    -0.54700
C330        C  0.14394834  0.05706734  0.58215493     0.09300
C331        C  0.14420333  0.02063879  0.59171445    -0.54200
C332        C  0.12357486  0.01533097  0.58435428     0.09900
H333        H  0.17199372  0.04319953  0.52779258     0.14400
H334        H  0.11050055  0.03043031  0.55898041     0.00100
H335        H  0.17818241  0.07739384  0.60026945     0.14700
H336        H  0.14531016  0.00918540  0.60450577     0.14500
N337        N  0.95313486  0.42351986  0.69970640    -0.27500
N338        N  0.96367951  0.43923502  0.72083781    -0.35300
C339        C  0.95953650  0.45400872  0.71725948     0.00900
C340        C  0.94550081  0.44730227  0.69293007     0.06900
C341        C  0.94195145  0.42803372  0.68203713    -0.06200
H342        H  0.96533554  0.46795155  0.73226185     0.07500
H343        H  0.93099935  0.41736284  0.66374310     0.08700
Cu344      Cu  0.98044805  0.43882737  0.75673788     0.44200
Cu345      Cu  0.95273342  0.39545690  0.69827085     0.42000
Cu346      Cu  0.98114802  0.39243460  0.76161959     0.43900
N347        N  0.99201289  0.43291518  0.79392082    -0.34900
N348        N  0.99243002  0.41568822  0.79558843    -0.29100
C349        C  0.99858864  0.41478262  0.82307573    -0.05200
C350        C  0.00179891  0.43207891  0.83973753     0.07000
C351        C  0.99780919  0.44344411  0.82038058     0.00800
H352        H  0.99979137  0.40194939  0.83058333     0.08400
H353        H  0.99789268  0.45753473  0.82559055     0.07500
N354        N  0.96537552  0.36866667  0.72776656    -0.36300
N355        N  0.95509965  0.36946665  0.70469467    -0.28500
C356        C  0.94696881  0.35122877  0.68720255    -0.03700
C357        C  0.95207458  0.33825616  0.70022961     0.04900
C358        C  0.96392918  0.34999980  0.72571269     0.03000
H359        H  0.93806412  0.34769103  0.66650732     0.08100
H360        H  0.97145546  0.34560375  0.74136419     0.06900
N361        N  0.89911068  0.57295588  0.67986510    -0.27500
N362        N  0.88952121  0.56022167  0.70410566    -0.35300
C363        C  0.88962492  0.54249774  0.70229104     0.00900
C364        C  0.90002915  0.54410169  0.67594521     0.06900
C365        C  0.90583489  0.56362298  0.66214428    -0.06200
H366        H  0.88356290  0.52991686  0.71964530     0.07500
H367        H  0.91458636  0.57069790  0.64105706     0.08700
Cu368      Cu  0.87958675  0.56825593  0.74137076     0.44200
Cu369      Cu  0.90348241  0.60305673  0.67301068     0.42000
Cu370      Cu  0.89648775  0.62375348  0.74164928     0.43900
N371        N  0.87764172  0.58262558  0.77919798    -0.34900
N372        N  0.88466979  0.60372837  0.77931517    -0.29100
C373        C  0.88331596  0.60935406  0.80703892    -0.05200
C374        C  0.87524562  0.59092357  0.82539518     0.07000
C375        C  0.87156250  0.57414917  0.80694486     0.00800
H376        H  0.88821101  0.62577867  0.81340214     0.08400
H377        H  0.86583497  0.55742519  0.81341968     0.07500
N378        N  0.90485618  0.64027532  0.70139455    -0.36300
N379        N  0.90676200  0.63281605  0.67596856    -0.28500
C380        C  0.91123158  0.64752126  0.65433128    -0.03700
C381        C  0.91255972  0.66523474  0.66698355     0.04900
C382        C  0.90825663  0.65980032  0.69679401     0.03000
H383        H  0.91306777  0.64526623  0.63114906     0.08100
H384        H  0.90766630  0.66939716  0.71410461     0.06900
N385        N  0.97410869  0.45396926  0.19894179    -0.27500
N386        N  0.98121718  0.46611045  0.17420723    -0.35300
C387        C  0.97524024  0.47951035  0.17470217     0.00900
C388        C  0.96385156  0.47599858  0.20106969     0.06900
C389        C  0.96364754  0.45974814  0.21611239    -0.06200
H390        H  0.97863760  0.49076705  0.15671269     0.07500
H391        H  0.95651357  0.45263020  0.23785386     0.08700
Cu392      Cu  0.99829792  0.46447134  0.13961928     0.44200
Cu393      Cu  0.97793236  0.42915846  0.20636709     0.42000
Cu394      Cu  0.00450456  0.42224117  0.14277295     0.43900
N395        N  0.01184029  0.45858721  0.10468041    -0.34900
N396        N  0.01360259  0.44225967  0.10549538    -0.29100
C397        C  0.01950094  0.43996289  0.07840892    -0.05200
C398        C  0.02186872  0.45589565  0.05957984     0.07000
C399        C  0.01680468  0.46735997  0.07717427     0.00800
H400        H  0.02015328  0.42646525  0.07242010     0.08400
H401        H  0.01531492  0.48008011  0.07008805     0.07500
N402        N  0.99287140  0.40295197  0.18122216    -0.36300
N403        N  0.98309053  0.40495040  0.20408856    -0.28500
C404        C  0.97697381  0.38878344  0.22430965    -0.03700
C405        C  0.98350914  0.37627689  0.21374558     0.04900
C406        C  0.99334942  0.38572489  0.18632273     0.03000
H407        H  0.96794528  0.38602615  0.24479974     0.08100
H408        H  0.00027294  0.38036414  0.17095715     0.06900
N409        N  0.89445096  0.58410179  0.19300231    -0.27500
N410        N  0.88682894  0.57105424  0.16910319    -0.35300
C411        C  0.89019207  0.55566932  0.17193551     0.00900
C412        C  0.90048980  0.55891434  0.19895081     0.06900
C413        C  0.90269266  0.57702576  0.21194510    -0.06200
H414        H  0.88620145  0.54351497  0.15488632     0.07500
H415        H  0.90997032  0.58473504  0.23332400     0.08700
Cu416      Cu  0.87380012  0.57509325  0.13203799     0.44200
Cu417      Cu  0.89476647  0.61200805  0.19655558     0.42000
Cu418      Cu  0.87211109  0.62065801  0.13018985     0.43900
N419        N  0.86536873  0.58356916  0.09428631    -0.34900
N420        N  0.86504260  0.60085989  0.09318269    -0.29100
C421        C  0.86192253  0.60396264  0.06491202    -0.05200
C422        C  0.85992898  0.58757085  0.04743935     0.07000
C423        C  0.86231965  0.57505030  0.06693829     0.00800
H424        H  0.86253578  0.61797714  0.05744645     0.08400
H425        H  0.86293827  0.56144741  0.06145483     0.07500
N426        N  0.88486898  0.64127659  0.16753725    -0.36300
N427        N  0.89380257  0.63897188  0.19094076    -0.28500
C428        C  0.90270578  0.65711612  0.20898748    -0.03700
C429        C  0.89943349  0.67157638  0.19611772     0.04900
C430        C  0.88761031  0.66063006  0.17023617     0.03000
H431        H  0.91158439  0.65995676  0.22947112     0.08100
H432        H  0.88179072  0.66648564  0.15405355     0.06900
C433        C  0.92524598  0.48925084  0.23048256    -0.11600
C434        C  0.93596032  0.51075653  0.21724784     0.15000
C435        C  0.95678513  0.52133250  0.20133335     0.01900
C436        C  0.96606172  0.51015554  0.19858699    -0.15900
C437        C  0.95447866  0.48782810  0.20964171    -0.10700
C438        C  0.93379578  0.47737006  0.22609366     0.08600
C439        C  0.92445193  0.52115686  0.21820244     0.09600
S440        S  0.97172767  0.54842365  0.18224325    -0.25100
H441        H  0.98210423  0.51871587  0.18637529     0.19900
S442        S  0.91624736  0.44832445  0.23969011    -0.30800
H443        H  0.90928047  0.48103735  0.24277375     0.10200
C444        C  0.90328375  0.51065866  0.20369966     0.03400
C445        C  0.89522094  0.52295860  0.19995965    -0.13100
C446        C  0.90816075  0.54592267  0.20925688    -0.08700
C447        C  0.92880202  0.55594525  0.22517833     0.06800
C448        C  0.93627485  0.54321570  0.23019809    -0.13800
S449        S  0.88745409  0.48242881  0.18737954    -0.30800
H450        H  0.87918034  0.51494238  0.18833418     0.11100
S451        S  0.94788595  0.58550979  0.23671696    -0.27900
H452        H  0.95252448  0.55130246  0.24139923     0.08300
H453        H  0.91772653  0.43937123  0.21323544     0.26800
H454        H  0.86846248  0.48037762  0.17745044     0.21600
H455        H  0.94758855  0.59393931  0.20911077     0.26900
H456        H  0.95166236  0.54424266  0.17206383     0.15700
C457        C  0.84839852  0.58928716  0.96568799    -0.11600
C458        C  0.86219738  0.58490022  0.95227964     0.15000
C459        C  0.87444517  0.58060969  0.97018653     0.01900
C460        C  0.87318674  0.58145638  0.00098696    -0.15900
C461        C  0.85960510  0.58609893  0.01463874    -0.10700
C462        C  0.84669911  0.58961538  0.99659993     0.08600
C463        C  0.86479107  0.58639097  0.91968462     0.09600
S464        S  0.89235792  0.57441913  0.95510311    -0.25100
H465        H  0.88324779  0.57878664  0.01438264     0.19900
S466        S  0.82721252  0.59383083  0.01138066    -0.30800
H467        H  0.83887278  0.59245484  0.95193150     0.10200
C468        C  0.84759012  0.56853025  0.90108276     0.03400
C469        C  0.85151729  0.57031903  0.87035840    -0.13100
C470        C  0.87223650  0.58971177  0.85793058    -0.08700
C471        C  0.88946645  0.60749576  0.87681365     0.06800
C472        C  0.88543074  0.60574161  0.90733940    -0.13800
S473        S  0.82100328  0.54323772  0.91657969    -0.30800
H474        H  0.83838431  0.55666033  0.85591103     0.11100
S475        S  0.91750163  0.63217487  0.86376614    -0.27900
H476        H  0.89876247  0.61930552  0.92175423     0.08300
H477        H  0.81982351  0.57883486  0.03555032     0.26800
H478        H  0.81020514  0.53269195  0.88943568     0.21600
H479        H  0.91961511  0.62007775  0.84217044     0.26900
H480        H  0.87949227  0.56355557  0.92919730     0.15700
C481        C  0.00155448  0.42456835  0.92316078    -0.11600
C482        C  0.01730637  0.44747436  0.93235394     0.15000
C483        C  0.02822244  0.46521724  0.91104425     0.01900
C484        C  0.02273464  0.45965450  0.88108263    -0.15900
C485        C  0.00678318  0.43670739  0.87177291    -0.10700
C486        C  0.99589208  0.41898007  0.89328270     0.08600
C487        C  0.02041637  0.45210814  0.96450264     0.09600
S488        S  0.04893115  0.49520669  0.92067025    -0.25100
H489        H  0.03116636  0.47337624  0.86483997     0.19900
S490        S  0.97327694  0.38911487  0.88469278    -0.30800
H491        H  0.99283985  0.41096615  0.93959894     0.10200
C492        C  0.00881135  0.45851289  0.97971689     0.03400
C493        C  0.01045095  0.46062680  0.01061534    -0.13100
C494        C  0.02357367  0.45657802  0.02673555    -0.08700
C495        C  0.03629411  0.45148672  0.01104404     0.06800
C496        C  0.03415328  0.44881382  0.98024255    -0.13800
S497        S  0.99087075  0.46274962  0.95995542    -0.30800
H498        H  0.00056750  0.46442844  0.02229443     0.11100
S499        S  0.05610938  0.44893248  0.02860831    -0.27900
H500        H  0.04337313  0.44425980  0.96837109     0.08300
H501        H  0.96264669  0.39333092  0.86355076     0.26800
H502        H  0.98509466  0.46988312  0.98443106     0.21600
H503        H  0.06287886  0.46524499  0.05080898     0.26900
H504        H  0.05673323  0.49214740  0.94685608     0.15700
C505        C  0.93156832  0.52090852  0.65846437    -0.11600
C506        C  0.91356224  0.49721880  0.66199718     0.15000
C507        C  0.89075036  0.48911986  0.66571211     0.01900
C508        C  0.88672810  0.50483260  0.66846448    -0.15900
C509        C  0.90488649  0.52859479  0.66686354    -0.10700
C510        C  0.92747285  0.53669854  0.66074164     0.08600
C511        C  0.91959661  0.48217491  0.66782660     0.09600
S512        S  0.86621999  0.45898360  0.66873036    -0.25100
H513        H  0.86931631  0.49847751  0.67289630     0.19900
S514        S  0.95158709  0.56708418  0.65940243    -0.30800
H515        H  0.94909251  0.52711887  0.65612720     0.10200
C516        C  0.93025750  0.47782174  0.64646662     0.03400
C517        C  0.93755896  0.46527083  0.65461094    -0.13100
C518        C  0.93441509  0.45710815  0.68371278    -0.08700
C519        C  0.92252639  0.46041958  0.70444303     0.06800
C520        C  0.91563358  0.47313990  0.69644714    -0.13800
S521        S  0.93454278  0.48825303  0.60901781    -0.30800
H522        H  0.94646921  0.46253004  0.63866713     0.11100
S523        S  0.91534033  0.44865116  0.74143572    -0.27900
H524        H  0.90726347  0.47625110  0.71286960     0.08300
H525        H  0.96794746  0.56508799  0.64873325     0.26800
H526        H  0.94552322  0.47977734  0.59820853     0.21600
H527        H  0.91222665  0.42872348  0.73377059     0.26900
H528        H  0.87617058  0.45108759  0.65278015     0.15700
C529        C  0.14807639  0.11014481  0.58106282    -0.11600
C530        C  0.12965069  0.10325619  0.59982737     0.15000
C531        C  0.11672866  0.08159288  0.61381964     0.01900
C532        C  0.12212884  0.06717183  0.60810893    -0.15900
C533        C  0.13982280  0.07357766  0.58828512    -0.10700
C534        C  0.15331343  0.09564252  0.57510470     0.08600
C535        C  0.12345075  0.11842288  0.60221634     0.09600
S536        S  0.09324478  0.07139119  0.63913239    -0.25100
H537        H  0.11280791  0.05104443  0.61981250     0.19900
S538        S  0.17709372  0.10634383  0.55000607    -0.30800
H539        H  0.15803415  0.12674690  0.57021033     0.10200
C540        C  0.13832505  0.14021242  0.61539553     0.03400
C541        C  0.13360772  0.15546264  0.61294089    -0.13100
C542        C  0.11425689  0.14961680  0.59718229    -0.08700
C543        C  0.09851118  0.12682916  0.58577629     0.06800
C544        C  0.10335391  0.11169067  0.58847226    -0.13800
S545        S  0.16371048  0.14879055  0.63487739    -0.30800
H546        H  0.14591400  0.17218313  0.62242374     0.11100
S547        S  0.07257542  0.11676889  0.56631041    -0.27900
H548        H  0.09192121  0.09474024  0.57871468     0.08300
H549        H  0.16844774  0.08509544  0.53784767     0.26800
H550        H  0.17116634  0.17029046  0.64461897     0.21600
H551        H  0.06543883  0.09514629  0.55784323     0.26900
H552        H  0.10160674  0.09316174  0.64902908     0.15700
C553        C  0.92769308  0.24716178  0.63382662    -0.11600
C554        C  0.94533619  0.26265977  0.65350607     0.15000
C555        C  0.96166997  0.25993134  0.66115454     0.01900
C556        C  0.96021322  0.24198976  0.64866559    -0.15900
C557        C  0.94302923  0.22669012  0.62782997    -0.10700
C558        C  0.92640688  0.22948606  0.62066081     0.08600
C559        C  0.94637446  0.28172984  0.66511731     0.09600
S560        S  0.98522333  0.27914554  0.68613987    -0.25100
H561        H  0.97335763  0.24095025  0.65489562     0.19900
S562        S  0.90360152  0.21118708  0.59410932    -0.30800
H563        H  0.91508054  0.24928058  0.62839732     0.10200
C564        C  0.95314747  0.30022838  0.64676745     0.03400
C565        C  0.95394146  0.31800620  0.65847302    -0.13100
C566        C  0.94814835  0.31771379  0.68820838    -0.08700
C567        C  0.94054002  0.29868271  0.70623438     0.06800
C568        C  0.94002038  0.28108814  0.69461603    -0.13800
S569        S  0.96178969  0.30169499  0.60877958    -0.30800
H570        H  0.95988173  0.33260385  0.64471578     0.11100
S571        S  0.93036061  0.29531430  0.74375947    -0.27900
H572        H  0.93432577  0.26661781  0.70853055     0.08300
H573        H  0.89581631  0.22391372  0.59186525     0.26800
H574        H  0.96605018  0.32220924  0.60130765     0.21600
H575        H  0.92100427  0.30640576  0.73904808     0.26900
H576        H  0.98799599  0.29892035  0.67896955     0.15700
C577        C  0.01786301  0.20076876  0.60795036    -0.11600
C578        C  0.01012537  0.17845482  0.60367589     0.15000
C579        C  0.98629463  0.16021392  0.60047724     0.01900
C580        C  0.97085511  0.16479397  0.60094250    -0.15900
C581        C  0.97847730  0.18721479  0.60462739    -0.10700
C582        C  0.00254704  0.20549559  0.60790263     0.08600
C583        C  0.02769818  0.17546427  0.59937196     0.09600
S584        S  0.97452239  0.13090703  0.59430386    -0.25100
H585        H  0.95268319  0.15061493  0.59798409     0.19900
S586        S  0.01556909  0.23548506  0.60937710    -0.30800
H587        H  0.03624006  0.21485887  0.60974615     0.10200
C588        C  0.03707640  0.17790266  0.57107324     0.03400
C589        C  0.05538469  0.17738946  0.56808180    -0.13100
C590        C  0.06463366  0.17456662  0.59282238    -0.08700
C591        C  0.05485790  0.17166395  0.62117035     0.06800
C592        C  0.03645293  0.17205052  0.62407512    -0.13800
S593        S  0.02619517  0.18244400  0.53889419    -0.30800
H594        H  0.06288705  0.17966078  0.54640728     0.11100
S595        S  0.06609598  0.16923474  0.65472699    -0.27900
H596        H  0.02941063  0.17048213  0.64587865     0.08300
H597        H  0.00057487  0.23407763  0.58912510     0.26800
H598        H  0.04129063  0.18413998  0.51807615     0.21600
H599        H  0.08945663  0.18488231  0.64620185     0.26900
H600        H  0.99253916  0.13260939  0.60724349     0.15700
C601        C  0.82035212  0.06574277  0.61648137    -0.11600
C602        C  0.83445938  0.07479318  0.59113761     0.15000
C603        C  0.82744071  0.06088642  0.56573021     0.01900
C604        C  0.80596016  0.03884590  0.56568144    -0.15900
C605        C  0.79153002  0.02972857  0.59090874    -0.10700
C606        C  0.79927668  0.04335620  0.61690038     0.08600
C607        C  0.85631700  0.09877818  0.59211284     0.09600
S608        S  0.84504603  0.07017519  0.53271037    -0.25100
H609        H  0.80044105  0.02887727  0.54548499     0.19900
S610        S  0.78387014  0.03332139  0.65171036    -0.30800
H611        H  0.82593547  0.07621651  0.63625106     0.10200
C612        C  0.85938753  0.11648189  0.57574298     0.03400
C613        C  0.88031360  0.13898106  0.57787584    -0.13100
C614        C  0.89791851  0.14418589  0.59662756    -0.08700
C615        C  0.89453174  0.12658857  0.61367457     0.06800
C616        C  0.87394039  0.10404948  0.61087883    -0.13800
S617        S  0.83634159  0.11064502  0.55324013    -0.30800
H618        H  0.88291699  0.15269378  0.56529484     0.11100
S619        S  0.91538574  0.13171507  0.63992174    -0.27900
H620        H  0.87142161  0.09052542  0.62386302     0.08300
H621        H  0.77445842  0.01044098  0.64755022     0.26800
H622        H  0.84830685  0.13318130  0.54271490     0.21600
H623        H  0.92521120  0.15444917  0.64685164     0.26900
H624        H  0.86645671  0.08496556  0.54704088     0.15700
C625        C  0.93648761  0.71768709  0.61822758    -0.11600
C626        C  0.92595975  0.72590901  0.63140713     0.15000
C627        C  0.91050997  0.71367206  0.65530146     0.01900
C628        C  0.90582930  0.69353592  0.66532466    -0.15900
C629        C  0.91693351  0.68558207  0.65297452    -0.10700
C630        C  0.93260017  0.69805435  0.62911282     0.08600
C631        C  0.93175153  0.74755590  0.62036171     0.09600
S632        S  0.89674344  0.72322418  0.67454181    -0.25100
H633        H  0.89371421  0.68427973  0.68350780     0.19900
S634        S  0.94961360  0.69116234  0.61304989    -0.30800
H635        H  0.94854482  0.72719094  0.60003823     0.10200
C636        C  0.95318447  0.76897405  0.62647946     0.03400
C637        C  0.95751646  0.78918040  0.61731396    -0.13100
C638        C  0.94090780  0.78871765  0.60177598    -0.08700
C639        C  0.91934398  0.76679563  0.59540357     0.06800
C640        C  0.91513868  0.74667491  0.60481303    -0.13800
S641        S  0.97473123  0.77062146  0.64728786    -0.30800
H642        H  0.97392110  0.80514031  0.62306262     0.11100
S643        S  0.89658144  0.76384919  0.57572694    -0.27900
H644        H  0.89865363  0.73004540  0.60045327     0.08300
H645        H  0.95495383  0.68671573  0.64043046     0.26800
H646        H  0.99239319  0.79451378  0.64500273     0.21600
H647        H  0.88141015  0.73979352  0.57296085     0.26900
H648        H  0.91533534  0.74685894  0.67185300     0.15700
C649        C  0.03174450  0.90728384  0.56767481    -0.11600
C650        C  0.03735863  0.92131870  0.59236511     0.15000
C651        C  0.02161967  0.91236720  0.61641797     0.01900
C652        C  0.00045877  0.89009406  0.61469849    -0.15900
C653        C  0.99479541  0.87625672  0.58983350    -0.10700
C654        C  0.01118073  0.88462841  0.56671109     0.08600
C655        C  0.05949514  0.94525221  0.59193129     0.09600
S656        S  0.02768301  0.92816990  0.65016418    -0.25100
H657        H  0.98863628  0.88330637  0.63331007     0.19900
S658        S  0.00733236  0.86732451  0.53567280    -0.30800
H659        H  0.04375570  0.91391065  0.54921371     0.10200
C660        C  0.08086038  0.94999392  0.58878461     0.03400
C661        C  0.10112835  0.97280736  0.58624420    -0.13100
C662        C  0.10100172  0.99144120  0.58837951    -0.08700
C663        C  0.07945760  0.98648370  0.59293152     0.06800
C664        C  0.05905512  0.96353700  0.59392911    -0.13800
S665        S  0.08253749  0.92706442  0.58876787    -0.30800
H666        H  0.11714583  0.97596249  0.58201685     0.11100
S667        S  0.07723119  0.00862076  0.59961672    -0.27900
H668        H  0.04254602  0.95968817  0.59669612     0.08300
H669        H  0.99583726  0.84665942  0.55138229     0.26800
H670        H  0.10676506  0.94103830  0.58881631     0.21600
H671        H  0.05306894  0.99477014  0.59773887     0.26900
H672        H  0.05171042  0.94066721  0.64929928     0.15700
C673        C  0.75134365  0.88055060  0.60746990    -0.11600
C674        C  0.76997343  0.90374241  0.60266802     0.15000
C675        C  0.79224479  0.91050413  0.59930262     0.01900
C676        C  0.79515618  0.89384600  0.59948277    -0.15900
C677        C  0.77622161  0.87007210  0.60170274    -0.10700
C678        C  0.75381016  0.86360878  0.60555543     0.08600
C679        C  0.76500703  0.91986486  0.59889376     0.09600
S680        S  0.81744025  0.93983944  0.59210752    -0.25100
H681        H  0.81228819  0.89968550  0.59476356     0.19900
S682        S  0.72746539  0.83410586  0.60446538    -0.30800
H683        H  0.73435322  0.87561655  0.61030596     0.10200
C684        C  0.75069329  0.91683573  0.57570365     0.03400
C685        C  0.74521135  0.93146900  0.57369886    -0.13100
C686        C  0.75446069  0.94969397  0.59351150    -0.08700
C687        C  0.76882525  0.95281406  0.61656716     0.06800
C688        C  0.77395382  0.93791041  0.61907714    -0.13800
S689        S  0.74013953  0.89496887  0.54779770    -0.30800
H690        H  0.73397557  0.92900880  0.55627576     0.11100
S691        S  0.78067977  0.97523736  0.64361229    -0.27900
H692        H  0.78475851  0.94021497  0.63705270     0.08300
H693        H  0.71157949  0.83796074  0.60909658     0.26800
H694        H  0.72932080  0.90089507  0.52990351     0.21600
H695        H  0.76016072  0.97210027  0.64682344     0.26900
H696        H  0.80614099  0.94554876  0.57491468     0.15700
C697        C  0.85197618  0.83791474  0.56866257    -0.11600
C698        C  0.86046390  0.84151980  0.59742706     0.15000
C699        C  0.85258614  0.84821092  0.61982333     0.01900
C700        C  0.83592440  0.85053174  0.61300984    -0.15900
C701        C  0.82663011  0.84602659  0.58433908    -0.10700
C702        C  0.83515668  0.83993601  0.56179212     0.08600
C703        C  0.87781039  0.83840783  0.60250944     0.09600
S704        S  0.86249347  0.85333727  0.65757920    -0.25100
H705        H  0.82937728  0.85481883  0.63067693     0.19900
S706        S  0.82556633  0.83519580  0.52388611    -0.30800
H707        H  0.85858030  0.83330055  0.55153650     0.10200
C708        C  0.87186280  0.81657462  0.59991999     0.03400
C709        C  0.88934361  0.81474219  0.59936647    -0.13100
C710        C  0.91270548  0.83426291  0.60212947    -0.08700
C711        C  0.91827774  0.85580180  0.60740719     0.06800
C712        C  0.90090254  0.85774841  0.60687074    -0.13800
S713        S  0.84200723  0.79109226  0.59657491    -0.30800
H714        H  0.88482111  0.79814262  0.59542010     0.11100
S715        S  0.94697686  0.88112581  0.61627644    -0.27900
H716        H  0.90542475  0.87448087  0.60951576     0.08300
H717        H  0.83887257  0.82954881  0.51225165     0.26800
H718        H  0.84584499  0.77509230  0.59818788     0.21600
H719        H  0.95115626  0.86874971  0.63384055     0.26900
H720        H  0.86807678  0.83869788  0.65743417     0.15700
C721        C  0.14604869  0.05523797  0.40116963    -0.11600
C722        C  0.12679821  0.03406983  0.41261974     0.15000
C723        C  0.11028479  0.01652778  0.39299726     0.01900
C724        C  0.11417942  0.02012921  0.36240286    -0.15900
C725        C  0.13404807  0.04096054  0.35105124    -0.10700
C726        C  0.14970914  0.05895835  0.37067011     0.08600
C727        C  0.12576472  0.03077051  0.44502460     0.09600
S728        S  0.08442739  0.98906900  0.40546776    -0.25100
H729        H  0.10195262  0.00635062  0.34736095     0.19900
S730        S  0.17458603  0.08701532  0.35821215    -0.30800
H731        H  0.15856634  0.06885494  0.41619037     0.10200
C732        C  0.13220263  0.01854167  0.45770614     0.03400
C733        C  0.13533078  0.01949472  0.48839256    -0.13100
C734        C  0.13267068  0.03283971  0.50674180    -0.08700
C735        C  0.12481572  0.04397037  0.49405598     0.06800
C736        C  0.12148905  0.04277411  0.46332548    -0.13800
S737        S  0.13821179  0.00320479  0.43460656    -0.30800
H738        H  0.14083745  0.01054522  0.49806705     0.11100
S739        S  0.12042085  0.06107429  0.51583002    -0.27900
H740        H  0.11645462  0.05201129  0.45318919     0.08300
H741        H  0.16462688  0.08679842  0.33177577     0.26800
H742        H  0.14348540  0.99470589  0.45764863     0.21600
H743        H  0.11799789  0.07145112  0.49211037     0.26900
H744        H  0.08315327  0.99639100  0.43350528     0.15700
C745        C  0.10439958  0.20840418  0.40732775    -0.11600
C746        C  0.12152407  0.20956446  0.42207966     0.15000
C747        C  0.13769403  0.20981344  0.40542471     0.01900
C748        C  0.13551024  0.20750129  0.37466858    -0.15900
C749        C  0.11731188  0.20452810  0.35996377    -0.10700
C750        C  0.10199804  0.20576902  0.37644796     0.08600
C751        C  0.11855257  0.20484015  0.45422357     0.09600
S752        S  0.15992474  0.21041826  0.42204112    -0.25100
H753        H  0.14754779  0.20691699  0.36217111     0.19900
S754        S  0.07762060  0.20113232  0.35941297    -0.30800
H755        H  0.09175812  0.20769424  0.42036734     0.10200
C756        C  0.13079312  0.22226057  0.47574685     0.03400
C757        C  0.12773564  0.21613166  0.50585687    -0.13100
C758        C  0.11234682  0.19296486  0.51462994    -0.08700
C759        C  0.09899487  0.17579263  0.49295798     0.06800
C760        C  0.10259131  0.18186609  0.46309746    -0.13800
S761        S  0.15064225  0.25205823  0.46475335    -0.30800
H762        H  0.13767662  0.22930911  0.52254957     0.11100
S763        S  0.07639888  0.14597444  0.50185589    -0.27900
H764        H  0.09265447  0.16854843  0.44652132     0.08300
H765        H  0.07131717  0.20778400  0.38385840     0.26800
H766        H  0.15940836  0.26103914  0.49319621     0.21600
H767        H  0.06979483  0.15020398  0.52848119     0.26900
H768        H  0.16195141  0.22132737  0.44851298     0.15700
C769        C  0.12852775  0.10222707  0.24379176    -0.11600
C770        C  0.12222576  0.10765683  0.26948622     0.15000
C771        C  0.11815031  0.09562654  0.29595378     0.01900
C772        C  0.12251762  0.08015079  0.29690520    -0.15900
C773        C  0.12968202  0.07521367  0.27156611    -0.10700
C774        C  0.13173810  0.08576546  0.24433766     0.08600
C775        C  0.12148108  0.12689692  0.26895400     0.09600
S776        S  0.10767871  0.09953265  0.32943759    -0.25100
H777        H  0.12061185  0.07218666  0.31792333     0.19900
S778        S  0.13756608  0.07860570  0.20937718    -0.30800
H779        H  0.13107978  0.11096814  0.22321099     0.10200
C780        C  0.13777741  0.14727714  0.28465815     0.03400
C781        C  0.13480375  0.16378852  0.28714712    -0.13100
C782        C  0.11574041  0.16056977  0.27447123    -0.08700
C783        C  0.10188114  0.14189552  0.25442409     0.06800
C784        C  0.10429795  0.12485385  0.25292969    -0.13800
S785        S  0.16232464  0.15221616  0.30181462    -0.30800
H786        H  0.14700918  0.17903169  0.30017795     0.11100
S787        S  0.08369840  0.14026353  0.22677828    -0.27900
H788        H  0.09291138  0.11002788  0.23882554     0.08300
H789        H  0.12664849  0.05563090  0.21663676     0.26800
H790        H  0.17314009  0.17466840  0.31174595     0.21600
H791        H  0.09775254  0.16422530  0.22307652     0.26900
H792        H  0.09486669  0.10475456  0.31519652     0.15700
C793        C  0.97834974  0.33454668  0.26836439    -0.11600
C794        C  0.97295429  0.31711389  0.24910294     0.15000
C795        C  0.97051783  0.31897519  0.21857742     0.01900
C796        C  0.97399080  0.33837458  0.20794067    -0.15900
C797        C  0.97971361  0.35609715  0.22702704    -0.10700
C798        C  0.98210338  0.35413742  0.25767036     0.08600
C799        C  0.97009325  0.29725097  0.26140095     0.09600
S800        S  0.96324141  0.29736149  0.19195838    -0.25100
H801        H  0.97192693  0.33947549  0.18445160     0.19900
S802        S  0.99143942  0.37651645  0.28400501    -0.30800
H803        H  0.98036577  0.33319123  0.29180358     0.10200
C804        C  0.98721269  0.29497430  0.25807816     0.03400
C805        C  0.98301398  0.27504504  0.26842468    -0.13100
C806        C  0.96204312  0.25719960  0.28275254    -0.08700
C807        C  0.94548792  0.26055695  0.28736538     0.06800
C808        C  0.94962027  0.28024394  0.27627881    -0.13800
S809        S  0.01464039  0.31776279  0.24108399    -0.30800
H810        H  0.99657158  0.27403619  0.26539572     0.11100
S811        S  0.91898742  0.24035374  0.30785380    -0.27900
H812        H  0.93673013  0.28242524  0.27896320     0.08300
H813        H  0.00780273  0.39459660  0.26485108     0.26800
H814        H  0.02535569  0.30798447  0.24547908     0.21600
H815        H  0.91226148  0.25400589  0.31039941     0.26900
H816        H  0.95043779  0.27848652  0.21135342     0.15700
C817        C  0.95894303  0.19656544  0.48036307    -0.11600
C818        C  0.94472075  0.20006496  0.46652673     0.15000
C819        C  0.93001359  0.20161673  0.48384752     0.01900
C820        C  0.93023747  0.20016462  0.51465994    -0.15900
C821        C  0.94516566  0.19763693  0.52876945    -0.10700
C822        C  0.95949455  0.19554939  0.51125290     0.08600
C823        C  0.94643400  0.20326233  0.43415175     0.09600
S824        S  0.91063996  0.20551168  0.46804412    -0.25100
H825        H  0.91883817  0.20132130  0.52781211     0.19900
S826        S  0.97992688  0.19314277  0.52674791    -0.30800
H827        H  0.97029789  0.19545981  0.46700598     0.10200
C828        C  0.96379079  0.22487841  0.42149163     0.03400
C829        C  0.96397340  0.22781537  0.39086938    -0.13100
C830        C  0.94721578  0.20951774  0.37246702    -0.08700
C831        C  0.92985362  0.18778282  0.38546745     0.06800
C832        C  0.92978211  0.18488712  0.41606894    -0.13800
S833        S  0.98546632  0.24882763  0.44448661    -0.30800
H834        H  0.97754758  0.24437249  0.38111898     0.11100
S835        S  0.90638479  0.16347243  0.36494496    -0.27900
H836        H  0.91625370  0.16836014  0.42602231     0.08300
H837        H  0.98775056  0.21031764  0.54787432     0.26800
H838        H  0.99638811  0.26550279  0.42190161     0.21600
H839        H  0.90284538  0.17671884  0.34855189     0.26900
H840        H  0.92478082  0.21916821  0.44392807     0.15700
C841        C  0.00998007  0.19816297  0.31561558    -0.11600
C842        C  0.01472184  0.19506295  0.28684267     0.15000
C843        C  0.00433804  0.19707628  0.26253105     0.01900
C844        C  0.99046060  0.20331656  0.26746663    -0.15900
C845        C  0.98627480  0.20709331  0.29625587    -0.10700
C846        C  0.99606993  0.20429323  0.32054725     0.08600
C847        C  0.03251984  0.19230727  0.28318503     0.09600
S848        S  0.00829846  0.19209355  0.22484303    -0.25100
H849        H  0.98267627  0.20503304  0.24873854     0.19900
S850        S  0.99289830  0.20990966  0.35814977    -0.30800
H851        H  0.01809217  0.19685591  0.33432123     0.10200
C852        C  0.05516829  0.21096590  0.27427399     0.03400
C853        C  0.07234493  0.20871325  0.27458813    -0.13100
C854        C  0.06766488  0.18848076  0.28458049    -0.08700
C855        C  0.04484602  0.16969712  0.29334796     0.06800
C856        C  0.02750665  0.17173299  0.29212093    -0.13800
S857        S  0.06262723  0.23822483  0.26451048    -0.30800
H858        H  0.08978432  0.22310786  0.26790851     0.11100
S859        S  0.03704357  0.14356025  0.30885411    -0.27900
H860        H  0.01019746  0.15757387  0.29961186     0.08300
H861        H  0.99586464  0.22976984  0.35077945     0.26800
H862        H  0.08635279  0.25025501  0.25973364     0.21600
H863        H  0.05748865  0.15433131  0.32509026     0.26900
H864        H  0.01259286  0.17691665  0.23174485     0.15700
C865        C  0.76574377  0.98446553  0.46465398    -0.11600
C866        C  0.76125944  0.99807652  0.45138596     0.15000
C867        C  0.75511860  0.00886200  0.46922785     0.01900
C868        C  0.75226098  0.00471393  0.49967191    -0.15900
C869        C  0.75525518  0.98989058  0.51296117    -0.10700
C870        C  0.76297725  0.98037403  0.49534833     0.08600
C871        C  0.76069365  0.99876687  0.41877511     0.09600
S872        S  0.74925259  0.02691789  0.45437414    -0.25100
H873        H  0.74701117  0.01269355  0.51307928     0.19900
S874        S  0.76773811  0.96172871  0.51105237    -0.30800
H875        H  0.77048316  0.97629902  0.45067686     0.10200
C876        C  0.78062556  0.01499860  0.40195670     0.03400
C877        C  0.77880694  0.01560272  0.37115769    -0.13100
C878        C  0.75745760  0.00059109  0.35675176    -0.08700
C879        C  0.73790352  0.98311239  0.37371828     0.06800
C880        C  0.73963259  0.98275386  0.40448232    -0.13800
S881        S  0.80808418  0.03546211  0.41994921    -0.30800
H882        H  0.79416218  0.02813409  0.35842617     0.11100
S883        S  0.71084756  0.95967163  0.35749615    -0.27900
H884        H  0.72447719  0.96966438  0.41742848     0.08300
H885        H  0.77679555  0.95935515  0.48534684     0.26800
H886        H  0.82088192  0.04758919  0.39423696     0.21600
H887        H  0.72104673  0.95845663  0.33208947     0.26900
H888        H  0.76380054  0.03474621  0.42945967     0.15700
C889        C  0.83873169  0.08649709  0.25591636    -0.11600
C890        C  0.85022108  0.09799684  0.28221089     0.15000
C891        C  0.84003953  0.08704507  0.30966198     0.01900
C892        C  0.81820809  0.06542780  0.31021664    -0.15900
C893        C  0.80639768  0.05396096  0.28409381    -0.10700
C894        C  0.81706562  0.06454535  0.25647833     0.08600
C895        C  0.87098625  0.12246569  0.28076632     0.09600
S896        S  0.85320018  0.10047503  0.34478174    -0.25100
H897        H  0.80984125  0.05819136  0.33141190     0.19900
S898        S  0.80375262  0.05159557  0.22118530    -0.30800
H899        H  0.84642230  0.09498071  0.23481878     0.10200
C900        C  0.89341771  0.12949021  0.27972530     0.03400
C901        C  0.91245177  0.15291891  0.28245986    -0.13100
C902        C  0.90949643  0.16948062  0.28634411    -0.08700
C903        C  0.88681329  0.16226147  0.28570425     0.06800
C904        C  0.86796378  0.13895101  0.28268134    -0.13800
S905        S  0.89765526  0.10848375  0.27651643    -0.30800
H906        H  0.92972715  0.15831815  0.28233700     0.11100
S907        S  0.88014548  0.18118175  0.29104056    -0.27900
H908        H  0.85062434  0.13343849  0.28334873     0.08300
H909        H  0.78878240  0.02865982  0.23075453     0.26800
H910        H  0.92183710  0.12396535  0.27923723     0.21600
H911        H  0.89553475  0.19315029  0.31455993     0.26900
H912        H  0.87615741  0.11301440  0.33514794     0.15700
C913        C  0.91924610  0.73226076  0.19935113    -0.11600
C914        C  0.91770926  0.73487569  0.22980424     0.15000
C915        C  0.91139548  0.71701714  0.24930694     0.01900
C916        C  0.90577828  0.69671228  0.23781632    -0.15900
C917        C  0.90711292  0.69402204  0.20726994    -0.10700
C918        C  0.91495336  0.71257376  0.18806339     0.08600
C919        C  0.92236474  0.75618571  0.24039022     0.09600
S920        S  0.91035835  0.71911429  0.28902233    -0.25100
H921        H  0.90017708  0.68284292  0.25288361     0.19900
S922        S  0.92143758  0.71311272  0.14936076    -0.30800
H923        H  0.92435248  0.74595544  0.18424929     0.10200
C924        C  0.94381237  0.77802439  0.23549966     0.03400
C925        C  0.94747626  0.79760053  0.24615062    -0.13100
C926        C  0.93048691  0.79616174  0.26271147    -0.08700
C927        C  0.90874023  0.77396410  0.26705253     0.06800
C928        C  0.90492255  0.75449342  0.25543773    -0.13800
S929        S  0.96725999  0.78106168  0.21734633    -0.30800
H930        H  0.96416648  0.81375312  0.24202877     0.11100
S931        S  0.88559018  0.76974965  0.28798549    -0.27900
H932        H  0.88829133  0.73767298  0.25847475     0.08300
H933        H  0.92992365  0.70111711  0.15319853     0.26800
H934        H  0.98297718  0.80519780  0.21604627     0.21600
H935        H  0.87186218  0.74582312  0.29155087     0.26900
H936        H  0.92829670  0.74298209  0.29053917     0.15700
C937        C  0.95106175  0.83044905  0.40697044    -0.11600
C938        C  0.93669702  0.83356061  0.42169250     0.15000
C939        C  0.92379920  0.83774877  0.40508093     0.01900
C940        C  0.92517082  0.83819006  0.37405765    -0.15900
C941        C  0.93898986  0.83431831  0.35931070    -0.10700
C942        C  0.95265260  0.83115775  0.37609390     0.08600
C943        C  0.93638660  0.83302386  0.45442063     0.09600
S944        S  0.90528490  0.84252415  0.42204575    -0.25100
H945        H  0.91487020  0.84090465  0.36131500     0.19900
S946        S  0.97322543  0.82898899  0.35961093    -0.30800
H947        H  0.96143164  0.82783196  0.41973329     0.10200
C948        C  0.92314995  0.81212638  0.46992110     0.03400
C949        C  0.92557895  0.81220232  0.50064889    -0.13100
C950        C  0.94166682  0.83272660  0.51648057    -0.08700
C951        C  0.95392280  0.85393502  0.50075212     0.06800
C952        C  0.95110654  0.85365239  0.46994498    -0.13800
S953        S  0.90345607  0.78528989  0.45037059    -0.30800
H954        H  0.91503808  0.79596675  0.51232088     0.11100
S955        S  0.97409055  0.88165871  0.51814634    -0.27900
H956        H  0.96105156  0.86956362  0.45750297     0.08300
H957        H  0.97947700  0.84420678  0.33610662     0.26800
H958        H  0.89672527  0.77074321  0.47489670     0.21600
H959        H  0.97950250  0.89544707  0.49319737     0.26900
H960        H  0.90004500  0.82956261  0.44780623     0.15700
C961        C  0.01795218  0.91583385  0.25824117    -0.11600
C962        C  0.02780365  0.92780892  0.28479682     0.15000
C963        C  0.01639043  0.91734726  0.31192471     0.01900
C964        C  0.99552270  0.89487990  0.31188482    -0.15900
C965        C  0.98562037  0.88272250  0.28530900    -0.10700
C966        C  0.99690560  0.89354586  0.25804602     0.08600
C967        C  0.05033738  0.95095791  0.28324352     0.09600
S968        S  0.02777837  0.93145051  0.34726186    -0.25100
H969        H  0.98707303  0.88672110  0.33284778     0.19900
S970        S  0.98554004  0.88055827  0.22210230    -0.30800
H971        H  0.02675276  0.92402051  0.23743411     0.10200
C972        C  0.07091871  0.95453345  0.28809206     0.03400
C973        C  0.09202489  0.97671807  0.28538763    -0.13100
C974        C  0.09296500  0.99536262  0.27757541    -0.08700
C975        C  0.07220311  0.99156954  0.27235491     0.06800
C976        C  0.05111843  0.96942095  0.27540800    -0.13800
S977        S  0.07026902  0.93082092  0.29750798    -0.30800
H978        H  0.10788638  0.97964961  0.28989239     0.11100
S979        S  0.07135876  0.01388360  0.26065160    -0.27900
H980        H  0.03517557  0.96644883  0.27127026     0.08300
H981        H  0.96204734  0.86643461  0.22982005     0.26800
H982        H  0.09429849  0.94362844  0.29961720     0.21600
H983        H  0.09180926  0.02585755  0.24384531     0.26900
H984        H  0.04035169  0.95407813  0.33687831     0.15700
C985        C  0.76470787  0.81800065  0.39730495    -0.11600
C986        C  0.77267954  0.83620913  0.41686995     0.15000
C987        C  0.78053214  0.85746327  0.40506098     0.01900
C988        C  0.78190860  0.86050750  0.37452804    -0.15900
C989        C  0.77322653  0.84221309  0.35481113    -0.10700
C990        C  0.76381136  0.82041427  0.36656056     0.08600
C991        C  0.77395238  0.83338929  0.44923164     0.09600
S992        S  0.78824462  0.88130634  0.42752784    -0.25100
H993        H  0.78943947  0.87744074  0.36623975     0.19900
S994        S  0.74902732  0.79519050  0.34336143    -0.30800
H995        H  0.75885561  0.80175836  0.40622096     0.10200
C996        C  0.75452905  0.81584178  0.46626730     0.03400
C997        C  0.75655164  0.81569759  0.49718729    -0.13100
C998        C  0.77698831  0.83352336  0.51139998    -0.08700
C999        C  0.79609722  0.85131963  0.49451272     0.06800
C1000       C  0.79487478  0.85012538  0.46364304    -0.13800
S1001       S  0.72666876  0.79488022  0.44937251    -0.30800
H1002       H  0.74178558  0.80255389  0.51055727     0.11100
S1003       S  0.82134124  0.87661825  0.51209486    -0.27900
H1004       H  0.80982950  0.86335191  0.45060879     0.08300
H1005       H  0.74193182  0.77916276  0.36609451     0.26800
H1006       H  0.71414703  0.78403661  0.47571841     0.21600
H1007       H  0.83301257  0.88896537  0.48598738     0.26900
H1008       H  0.77208817  0.86766070  0.45020242     0.15700
C1009       C  0.75080773  0.89887600  0.27808276    -0.11600
C1010       C  0.76751666  0.91898737  0.26214781     0.15000
C1011       C  0.78540705  0.92068551  0.24776472     0.01900
C1012       C  0.78758766  0.90371610  0.25247647    -0.15900
C1013       C  0.77142580  0.88403544  0.26979568    -0.10700
C1014       C  0.75153368  0.88079233  0.28003125     0.08600
C1015       C  0.76631293  0.93809685  0.26253251     0.09600
S1016       S  0.80572856  0.94372685  0.22260327    -0.25100
H1017       H  0.80177659  0.90589764  0.24171308     0.19900
S1018       S  0.72686851  0.85387058  0.29603822    -0.30800
H1019       H  0.73708759  0.89734782  0.28933848     0.10200
C1020       C  0.74554639  0.93422035  0.25699642     0.03400
C1021       C  0.74440500  0.95185871  0.26211592    -0.13100
C1022       C  0.76400558  0.97421698  0.27011326    -0.08700
C1023       C  0.78538646  0.97856251  0.27253581     0.06800
C1024       C  0.78594964  0.96033582  0.27039210    -0.13800
S1025       S  0.72045940  0.90706941  0.24248695    -0.30800
H1026       H  0.72783284  0.94785140  0.26025115     0.11100
S1027       S  0.81298794  0.00681410  0.27590529    -0.27900
H1028       H  0.80208759  0.96369037  0.27440299     0.08300
H1029       H  0.71252649  0.85977373  0.29953550     0.26800
H1030       H  0.70615076  0.91303832  0.23981400     0.21600
H1031       H  0.80669282  0.01754212  0.25879115     0.26900
H1032       H  0.79065138  0.94765570  0.21309492     0.15700
C1033       C  0.85457757  0.86554132  0.25792317    -0.11600
C1034       C  0.86061774  0.86086362  0.28438263     0.15000
C1035       C  0.84933487  0.85852110  0.31102841     0.01900
C1036       C  0.83135823  0.85951648  0.31034278    -0.15900
C1037       C  0.82431951  0.86282167  0.28363912    -0.10700
C1038       C  0.83630504  0.86619252  0.25716631     0.08600
C1039       C  0.87652419  0.85559672  0.28294126     0.09600
S1040       S  0.85599383  0.85269590  0.34621666    -0.25100
H1041       H  0.82222459  0.85690390  0.33074803     0.19900
S1042       S  0.82787118  0.86926519  0.22148874    -0.30800
H1043       H  0.86314077  0.86716591  0.23742322     0.10200
C1044       C  0.86798748  0.83272970  0.28150836     0.03400
C1045       C  0.88349452  0.82821918  0.28145411    -0.13100
C1046       C  0.90749899  0.84615516  0.28207491    -0.08700
C1047       C  0.91589906  0.86917575  0.28191863     0.06800
C1048       C  0.90034475  0.87358113  0.28279723    -0.13800
S1049       S  0.83727542  0.80926882  0.27992886    -0.30800
H1050       H  0.87682323  0.81058427  0.28171952     0.11100
S1051       S  0.94600599  0.89376981  0.27875580    -0.27900
H1052       H  0.90683402  0.89117731  0.28310752     0.08300
H1053       H  0.80396358  0.85315422  0.22682220     0.26800
H1054       H  0.83879647  0.79194007  0.27373328     0.21600
H1055       H  0.95045796  0.88322388  0.25781287     0.26900
H1056       H  0.87923100  0.86350772  0.33977250     0.15700
C1057       C  0.68204739  0.97069195  0.64412882    -0.11600
C1058       C  0.66478884  0.96602450  0.62524800     0.15000
C1059       C  0.66650441  0.96353617  0.59471799     0.01900
C1060       C  0.68584501  0.96678524  0.58353425    -0.15900
C1061       C  0.70406231  0.97263302  0.60202754    -0.10700
C1062       C  0.70135010  0.97360626  0.63310584     0.08600
C1063       C  0.64584835  0.96503851  0.63785329     0.09600
S1064       S  0.64456891  0.95627247  0.56870642    -0.25100
H1065       H  0.68583828  0.96416672  0.56012685     0.19900
S1066       S  0.72229998  0.97868722  0.65933279    -0.30800
H1067       H  0.68048186  0.97240898  0.66763701     0.10200
C1068       C  0.62908664  0.94721559  0.65706766     0.03400
C1069       C  0.61194765  0.94748995  0.66918873    -0.13100
C1070       C  0.61116250  0.96521064  0.66246230    -0.08700
C1071       C  0.62820563  0.98317193  0.64338843     0.06800
C1072       C  0.64509855  0.98270641  0.63104323    -0.13800
S1073       S  0.62912076  0.92378236  0.66539931    -0.30800
H1074       H  0.59891512  0.93369460  0.68373533     0.11100
S1075       S  0.63045444  0.00797125  0.63550296    -0.27900
H1076       H  0.65821850  0.99660473  0.61662784     0.08300
H1077       H  0.70983853  0.97493466  0.68532280     0.26800
H1078       H  0.61004774  0.91196725  0.68485796     0.21600
H1079       H  0.62466332  0.00985433  0.66441903     0.26900
H1080       H  0.62585668  0.94347922  0.58863560     0.15700
C1081       C  0.24557797  0.03507363  0.61611968    -0.11600
C1082       C  0.24733925  0.05477088  0.61742572     0.15000
C1083       C  0.26687215  0.07485242  0.63072505     0.01900
C1084       C  0.28358650  0.07451518  0.64360659    -0.15900
C1085       C  0.28165203  0.05469613  0.64297134    -0.10700
C1086       C  0.26241296  0.03476570  0.62883086     0.08600
C1087       C  0.22768068  0.05326546  0.60697725     0.09600
S1088       S  0.27137883  0.10138057  0.63205799    -0.25100
H1089       H  0.29835903  0.08996333  0.65413352     0.19900
S1090       S  0.25743361  0.00800235  0.62804217    -0.30800
H1091       H  0.23050314  0.01955097  0.60612428     0.10200
C1092       C  0.22289499  0.05213386  0.57673227     0.03400
C1093       C  0.20355055  0.04976266  0.56791465    -0.13100
C1094       C  0.18825687  0.04804673  0.58874269    -0.08700
C1095       C  0.19372988  0.04978666  0.61934960     0.06800
C1096       C  0.21328281  0.05240508  0.62791845    -0.13800
S1097       S  0.24179087  0.05417925  0.54920737    -0.30800
H1098       H  0.20081060  0.04914571  0.54455854     0.11100
S1099       S  0.17585517  0.04832769  0.64814490    -0.27900
H1100       H  0.21729726  0.05345492  0.65116936     0.08300
H1101       H  0.26574979  0.01011671  0.65675539     0.26800
H1102       H  0.22765771  0.04836284  0.52453524     0.21600
H1103       H  0.18787412  0.04915701  0.67262139     0.26900
H1104       H  0.25983532  0.09789304  0.60551299     0.15700
C1105       C  0.42031419  0.00557602  0.63998188    -0.11600
C1106       C  0.44165268  0.01660588  0.65401039     0.15000
C1107       C  0.45089227  0.03647219  0.67100619     0.01900
C1108       C  0.43853173  0.04449040  0.67414287    -0.15900
C1109       C  0.41628321  0.03244345  0.66233053    -0.10700
C1110       C  0.40725173  0.01283356  0.64461169     0.08600
C1111       C  0.45281410  0.00588063  0.65371147     0.09600
S1112       S  0.47754223  0.05140942  0.69124663    -0.25100
H1113       H  0.44592366  0.05968619  0.68746360     0.19900
S1114       S  0.37844747  0.99486735  0.62990214    -0.30800
H1115       H  0.41305247  0.99021046  0.62709511     0.10200
C1116       C  0.44303381  0.98553727  0.66981080     0.03400
C1117       C  0.45623483  0.97864411  0.67507586    -0.13100
C1118       C  0.47924238  0.99179160  0.66521898    -0.08700
C1119       C  0.48848925  0.01135442  0.64738977     0.06800
C1120       C  0.47502462  0.01792097  0.64140121    -0.13800
S1121       S  0.41460401  0.96948978  0.68634831    -0.30800
H1122       H  0.44895958  0.96347564  0.68837052     0.11100
S1123       S  0.51792291  0.03002063  0.63430718    -0.27900
H1124       H  0.48258477  0.03358845  0.62907362     0.08300
H1125       H  0.36816637  0.99427486  0.65650753     0.26800
H1126       H  0.41314533  0.95109371  0.69712081     0.21600
H1127       H  0.52727770  0.03027041  0.66135935     0.26900
H1128       H  0.47361380  0.03147967  0.70109533     0.15700
C1129       C  0.25935680  0.06958949  0.25175673    -0.11600
C1130       C  0.24312545  0.06555540  0.23132482     0.15000
C1131       C  0.24760424  0.06633805  0.20075739     0.01900
C1132       C  0.26750611  0.06996586  0.19135949    -0.15900
C1133       C  0.28387226  0.07389332  0.21164085    -0.10700
C1134       C  0.27981783  0.07417904  0.24231908     0.08600
C1135       C  0.22152660  0.06025297  0.24239709     0.09600
S1136       S  0.22862717  0.06285135  0.17256286    -0.25100
H1137       H  0.27009484  0.06963300  0.16779957     0.19900
S1138       S  0.30034138  0.08143257  0.27054006    -0.30800
H1139       H  0.25616175  0.06942284  0.27526008     0.10200
C1140       C  0.20009227  0.03827420  0.23917445     0.03400
C1141       C  0.17994008  0.03421419  0.24864528    -0.13100
C1142       C  0.18039079  0.05167268  0.26152114    -0.08700
C1143       C  0.20241077  0.07355659  0.26599725     0.06800
C1144       C  0.22252488  0.07755769  0.25607685    -0.13800
S1145       S  0.19844085  0.01493795  0.22425869    -0.30800
H1146       H  0.16419214  0.01689285  0.24690834     0.11100
S1147       S  0.20556656  0.09650876  0.28532841    -0.27900
H1148       H  0.23923847  0.09427810  0.25896519     0.08300
H1149       H  0.31980676  0.09858738  0.25362798     0.26800
H1150       H  0.17429783  0.99907850  0.22120457     0.21600
H1151       H  0.22960647  0.11343549  0.28188057     0.26900
H1152       H  0.22048111  0.07235090  0.18898809     0.15700
C1153       C  0.37594911  0.10944735  0.96047594    -0.11600
C1154       C  0.37184217  0.09107657  0.94481245     0.15000
C1155       C  0.36735521  0.07244315  0.96052920     0.01900
C1156       C  0.36670945  0.07242490  0.99147831    -0.15900
C1157       C  0.37075710  0.09074810  0.00735396    -0.10700
C1158       C  0.37572884  0.10963300  0.99151748     0.08600
C1159       C  0.37198393  0.09159298  0.91210841     0.09600
S1160       S  0.36166764  0.04786677  0.94253285    -0.25100
H1161       H  0.36280201  0.05780390  0.00327795     0.19900
S1162       S  0.38301092  0.13490707  0.00935673    -0.30800
H1163       H  0.37960852  0.12385997  0.94839239     0.10200
C1164       C  0.35136795  0.08026402  0.89605398     0.03400
C1165       C  0.35208152  0.07979866  0.86502719    -0.13100
C1166       C  0.37303702  0.09041428  0.84971375    -0.08700
C1167       C  0.39382738  0.10273774  0.86597209     0.06800
C1168       C  0.39303839  0.10304739  0.89694751    -0.13800
S1169       S  0.32411996  0.06594599  0.91518156    -0.30800
H1170       H  0.33613716  0.07039688  0.85270971     0.11100
S1171       S  0.42191621  0.11891232  0.84869372    -0.27900
H1172       H  0.40892688  0.11209429  0.90938972     0.08300
H1173       H  0.39558015  0.13498471  0.03243038     0.26800
H1174       H  0.31044515  0.05921929  0.88974912     0.21600
H1175       H  0.41610700  0.12532397  0.82364161     0.26900
H1176       H  0.37483014  0.05924143  0.91682221     0.15700
C1177       C  0.65380236  0.00945328  0.25351292    -0.11600
C1178       C  0.65868728  0.99588592  0.24076411     0.15000
C1179       C  0.64344266  0.97929541  0.21946208     0.01900
C1180       C  0.62376850  0.97648349  0.21167954    -0.15900
C1181       C  0.61924947  0.99069487  0.22326527    -0.10700
C1182       C  0.63471975  0.00751639  0.24447379     0.08600
C1183       C  0.67965680  0.99922139  0.25004884     0.09600
S1184       S  0.64855866  0.96176388  0.20040553    -0.25100
H1185       H  0.61217730  0.96332548  0.19565070     0.19900
S1186       S  0.63233224  0.02816134  0.25928549    -0.30800
H1187       H  0.66545900  0.02225392  0.26988238     0.10200
C1188       C  0.70200958  0.01973221  0.24408634     0.03400
C1189       C  0.72131300  0.02200730  0.25293703    -0.13100
C1190       C  0.71905611  0.00407286  0.26756787    -0.08700
C1191       C  0.69627513  0.98296539  0.27189892     0.06800
C1192       C  0.67707467  0.98108357  0.26378161    -0.13800
S1193       S  0.70604135  0.04279410  0.22398480    -0.30800
H1194       H  0.73796997  0.03791770  0.24777241     0.11100
S1195       S  0.69101584  0.95782108  0.28712259    -0.27900
H1196       H  0.65978835  0.96521340  0.26771259     0.08300
H1197       H  0.62737252  0.03282990  0.23177141     0.26800
H1198       H  0.73027924  0.05863766  0.22543158     0.21600
H1199       H  0.66675914  0.94283911  0.28606533     0.26900
H1200       H  0.67274549  0.97862560  0.19936551     0.15700
C1201       C  0.50148197  0.93443874  0.97690883    -0.11600
C1202       C  0.52256846  0.94797604  0.96150866     0.15000
C1203       C  0.54345966  0.96143732  0.97744565     0.01900
C1204       C  0.54272686  0.96148519  0.00839517    -0.15900
C1205       C  0.52162863  0.94843317  0.02391120    -0.10700
C1206       C  0.50078285  0.93428454  0.00789678     0.08600
C1207       C  0.52216991  0.94826846  0.92887676     0.09600
S1208       S  0.57160442  0.97988341  0.95994690    -0.25100
H1209       H  0.55882055  0.97246162  0.02043169     0.19900
S1210       S  0.47284805  0.91522263  0.02558302    -0.30800
H1211       H  0.48545960  0.92388921  0.96465507     0.10200
C1212       C  0.52255455  0.93283092  0.91184177     0.03400
C1213       C  0.52334505  0.93449167  0.88085528    -0.13100
C1214       C  0.52364735  0.95124011  0.86658895    -0.08700
C1215       C  0.52325420  0.96670807  0.88393784     0.06800
C1216       C  0.52221803  0.96483177  0.91481793    -0.13800
S1217       S  0.52259522  0.91143335  0.92970556    -0.30800
H1218       H  0.52362033  0.92263603  0.86764236     0.11100
S1219       S  0.52567427  0.99019497  0.86844768    -0.27900
H1220       H  0.52218417  0.97684397  0.92807865     0.08300
H1221       H  0.48054629  0.91047476  0.05030505     0.26800
H1222       H  0.52471472  0.90251789  0.90371674     0.21600
H1223       H  0.54201808  0.99568043  0.84666641     0.26900
H1224       H  0.56547591  0.96904253  0.93224964     0.07300
C1225       C  0.41846492  0.01367526  0.20215684    -0.11600
C1226       C  0.43947813  0.02993633  0.21661521     0.15000
C1227       C  0.44492432  0.05076127  0.22619291     0.01900
C1228       C  0.42977698  0.05524352  0.21994309    -0.15900
C1229       C  0.40931404  0.03939514  0.20419616    -0.10700
C1230       C  0.40339218  0.01815660  0.19586317     0.08600
C1231       C  0.45643063  0.02583242  0.21725658     0.09600
S1232       S  0.47139793  0.07267941  0.24510350    -0.25100
H1233       H  0.43454603  0.07167975  0.22609674     0.19900
S1234       S  0.37741181  0.99654553  0.17580564    -0.30800
H1235       H  0.41424773  0.99774497  0.19453098     0.10200
C1236       C  0.45279324  0.00819463  0.23453342     0.03400
C1237       C  0.46704063  0.00223033  0.23018526    -0.13100
C1238       C  0.48481151  0.01361033  0.20887630    -0.08700
C1239       C  0.48943688  0.03237691  0.19325596     0.06800
C1240       C  0.47515532  0.03816364  0.19743783    -0.13800
S1241       S  0.42959099  0.99289429  0.26141072    -0.30800
H1242       H  0.46354281  0.98787336  0.24216731     0.11100
S1243       S  0.51285334  0.04910558  0.16692639    -0.27900
H1244       H  0.47813121  0.05185345  0.18429413     0.08300
H1245       H  0.36423432  0.00245179  0.18704973     0.26800
H1246       H  0.43496708  0.97950688  0.27312079     0.21600
H1247       H  0.52732147  0.04575133  0.18061942     0.26900
H1248       H  0.47447254  0.05774875  0.25773468     0.15700
C1249       C  0.72046302  0.75115419  0.61141260    -0.11600
C1250       C  0.73417711  0.74540595  0.62007388     0.15000
C1251       C  0.75846047  0.76213112  0.61847119     0.01900
C1252       C  0.76844389  0.78438242  0.60907827    -0.15900
C1253       C  0.75471343  0.79023062  0.60083398    -0.10700
C1254       C  0.73047706  0.77336762  0.60164393     0.08600
C1255       C  0.72236560  0.72188124  0.63114425     0.09600
S1256       S  0.77759095  0.75622990  0.62806567    -0.25100
H1257       H  0.78709564  0.79723968  0.60809353     0.19900
S1258       S  0.71226351  0.77963764  0.58868183    -0.30800
H1259       H  0.70184858  0.73810693  0.61228961     0.10200
C1260       C  0.72099781  0.71727573  0.66164614     0.03400
C1261       C  0.70761077  0.69443888  0.67134406    -0.13100
C1262       C  0.69554242  0.67609147  0.65112577    -0.08700
C1263       C  0.69807242  0.68094012  0.62042826     0.06800
C1264       C  0.71109168  0.70370885  0.61084029    -0.13800
S1265       S  0.73514836  0.74037498  0.68831780    -0.30800
H1266       H  0.70568473  0.69085026  0.69486747     0.11100
S1267       S  0.68568832  0.65902499  0.59235864    -0.27900
H1268       H  0.71247048  0.70733566  0.58733750     0.08300
H1269       H  0.69103288  0.75845904  0.59658932     0.26800
H1270       H  0.73007214  0.72684816  0.71344970     0.21600
H1271       H  0.68760600  0.64445883  0.60877216     0.26900
H1272       H  0.76232053  0.73272050  0.62110045     0.15700
C1273       C  0.15000224  0.26697057  0.62070518    -0.11600
C1274       C  0.17379756  0.27887535  0.62004705     0.15000
C1275       C  0.18224662  0.26759670  0.61034867     0.01900
C1276       C  0.16662431  0.24457607  0.60164627    -0.15900
C1277       C  0.14265440  0.23247704  0.60225359    -0.10700
C1278       C  0.13430167  0.24392895  0.61203238     0.08600
C1279       C  0.18910943  0.30267674  0.63117248     0.09600
S1280       S  0.21262655  0.28146384  0.60887983    -0.25100
H1281       H  0.17327244  0.23608124  0.59403782     0.19900
S1282       S  0.10384876  0.22929272  0.61594287    -0.30800
H1283       H  0.14377742  0.27575056  0.62875318     0.10200
C1284       C  0.19444651  0.32102208  0.61382041     0.03400
C1285       C  0.20861998  0.34330963  0.62555045    -0.13100
C1286       C  0.21707631  0.34741870  0.65450033    -0.08700
C1287       C  0.21163758  0.32892701  0.67184790     0.06800
C1288       C  0.19760210  0.30676079  0.66004954    -0.13800
S1289       S  0.18344124  0.31603189  0.57664560    -0.30800
H1290       H  0.21305222  0.35757431  0.61225873     0.11100
S1291       S  0.22256254  0.33250301  0.70874857    -0.27900
H1292       H  0.19336379  0.29257644  0.67338153     0.08300
H1293       H  0.10569954  0.24854656  0.62344375     0.26800
H1294       H  0.19011885  0.33801268  0.57228906     0.21600
H1295       H  0.24457531  0.35348817  0.70288948     0.26900
H1296       H  0.22068185  0.30398947  0.60501796     0.15700
C1297       C  0.48386558  0.53122160  0.66860563    -0.11600
C1298       C  0.46712104  0.51007352  0.68248333     0.15000
C1299       C  0.47399177  0.49866930  0.69684642     0.01900
C1300       C  0.49733495  0.50870225  0.69712507    -0.15900
C1301       C  0.51440229  0.53053024  0.68471814    -0.10700
C1302       C  0.50737423  0.54191843  0.67037189     0.08600
C1303       C  0.44290805  0.50109259  0.68340639     0.09600
S1304       S  0.45406526  0.47179607  0.71635164    -0.25100
H1305       H  0.50224794  0.49960945  0.70808927     0.19900
S1306       S  0.52715755  0.57090251  0.65658225    -0.30800
H1307       H  0.47863701  0.54010697  0.65781841     0.10200
C1308       C  0.43666308  0.51226154  0.70017354     0.03400
C1309       C  0.41334312  0.50216822  0.70291181    -0.13100
C1310       C  0.39597029  0.48092704  0.68971346    -0.08700
C1311       C  0.40233842  0.46994290  0.67250052     0.06800
C1312       C  0.42572864  0.48035666  0.66911677    -0.13800
S1313       S  0.45819726  0.53870719  0.71959252    -0.30800
H1314       H  0.40853796  0.51066864  0.71595529     0.11100
S1315       S  0.38166530  0.44188277  0.65643383    -0.27900
H1316       H  0.43053923  0.47169387  0.65644079     0.08300
H1317       H  0.54131802  0.57934632  0.68177518     0.26800
H1318       H  0.44298209  0.54141667  0.73278623     0.21600
H1319       H  0.36681032  0.43257610  0.68122539     0.26900
H1320       H  0.43921953  0.47597586  0.72640078     0.15700
C1321       C  0.16602283  0.27256947  0.23442344    -0.11600
C1322       C  0.17707660  0.28937939  0.25663469     0.15000
C1323       C  0.17194972  0.28263938  0.28669492     0.01900
C1324       C  0.15627786  0.25924273  0.29375084    -0.15900
C1325       C  0.14534897  0.24237383  0.27156837    -0.10700
C1326       C  0.14996638  0.24921341  0.24151211     0.08600
C1327       C  0.19368707  0.31368682  0.24741554     0.09600
S1328       S  0.18486211  0.30266342  0.31725395    -0.25100
H1329       H  0.15270750  0.25412891  0.31685726     0.19900
S1330       S  0.13518800  0.22920354  0.21126266    -0.30800
H1331       H  0.16966884  0.27775084  0.21134339     0.10200
C1332       C  0.21735048  0.32482371  0.24406462     0.03400
C1333       C  0.23227063  0.34744386  0.23336239    -0.13100
C1334       C  0.22395625  0.35914846  0.22595217    -0.08700
C1335       C  0.20038438  0.34828494  0.23081973     0.06800
C1336       C  0.18544855  0.32554794  0.24113254    -0.13800
S1337       S  0.22835872  0.30995392  0.25265710    -0.30800
H1338       H  0.25032288  0.35573661  0.22975126     0.11100
S1339       S  0.18930807  0.36344440  0.22505101    -0.27900
H1340       H  0.16725104  0.31686600  0.24425521     0.08300
H1341       H  0.11390653  0.21410532  0.22620994     0.26800
H1342       H  0.25175202  0.32847378  0.24691185     0.21600
H1343       H  0.16728460  0.34663781  0.23744323     0.26900
H1344       H  0.19478967  0.32303816  0.30149044     0.15700
C1345       C  0.25430663  0.44382740  0.90189539    -0.11600
C1346       C  0.26681190  0.44102865  0.92146639     0.15000
C1347       C  0.28121299  0.43656357  0.91008437     0.01900
C1348       C  0.28308032  0.43534086  0.87950195    -0.15900
C1349       C  0.27115921  0.43879555  0.85973470    -0.10700
C1350       C  0.25646129  0.44295361  0.87114766     0.08600
C1351       C  0.26493753  0.44306172  0.95368349     0.09600
S1352       S  0.29773848  0.43234566  0.93337452    -0.25100
H1353       H  0.29420046  0.43190026  0.87102833     0.19900
S1354       S  0.24096151  0.44843247  0.84790408    -0.30800
H1355       H  0.24325689  0.44727116  0.91064536     0.10200
C1356       C  0.27819540  0.46468649  0.96754151     0.03400
C1357       C  0.27914738  0.46589109  0.99854896    -0.13100
C1358       C  0.26723091  0.44590944  0.01600789    -0.08700
C1359       C  0.25309394  0.42416988  0.00195832     0.06800
C1360       C  0.25198987  0.42306249  0.97092380    -0.13800
S1361       S  0.29530326  0.49071535  0.94569390    -0.30800
H1362       H  0.28998893  0.48250149  0.00929250     0.11100
S1363       S  0.23827666  0.39774896  0.02273543    -0.27900
H1364       H  0.24199990  0.40658739  0.95985437     0.08300
H1365       H  0.25864476  0.46126499  0.82659168     0.26800
H1366       H  0.30570833  0.50616693  0.96959692     0.21600
H1367       H  0.23050053  0.38284130  0.99838890     0.26900
H1368       H  0.30275464  0.44814000  0.95539524     0.15700
C1369       C  0.71676155  0.76841287  0.24251445    -0.11600
C1370       C  0.73052561  0.76297638  0.23230173     0.15000
C1371       C  0.75466590  0.77896733  0.23616214     0.01900
C1372       C  0.76448082  0.80009386  0.24969818    -0.15900
C1373       C  0.75072123  0.80556251  0.25994336    -0.10700
C1374       C  0.72651926  0.78930532  0.25667646     0.08600
C1375       C  0.71900735  0.74046000  0.21778605     0.09600
S1376       S  0.77384246  0.77349774  0.22434320    -0.25100
H1377       H  0.78306692  0.81241497  0.25218845     0.19900
S1378       S  0.70709850  0.79369071  0.27121682    -0.30800
H1379       H  0.69819052  0.75605664  0.23987958     0.10200
C1380       C  0.70626325  0.72002623  0.23446603     0.03400
C1381       C  0.69396308  0.69886689  0.21982843    -0.13100
C1382       C  0.69398985  0.69760427  0.18873836    -0.08700
C1383       C  0.70714411  0.71820533  0.17203151     0.06800
C1384       C  0.71963975  0.73941108  0.18681488    -0.13800
S1385       S  0.70564896  0.72095371  0.27445145    -0.30800
H1386       H  0.68402844  0.68314682  0.23267100     0.11100
S1387       S  0.70650626  0.71780393  0.13201429    -0.27900
H1388       H  0.72928643  0.75526027  0.17426080     0.08300
H1389       H  0.72045199  0.80618422  0.29625818     0.26800
H1390       H  0.69048746  0.69706628  0.27915453     0.21600
H1391       H  0.72271449  0.74170160  0.12768638     0.26900
H1392       H  0.75803797  0.74954531  0.22813655     0.15700
C1393       C  0.65882648  0.58087304  0.95864565    -0.11600
C1394       C  0.63847955  0.57101549  0.94276130     0.15000
C1395       C  0.61784840  0.56192843  0.95822269     0.01900
C1396       C  0.61820998  0.56358486  0.98908115    -0.15900
C1397       C  0.63879553  0.57444782  0.00504932    -0.10700
C1398       C  0.65918131  0.58250449  0.98956785     0.08600
C1399       C  0.63951788  0.57131155  0.91008929     0.09600
S1400       S  0.59066192  0.54872358  0.94001310    -0.25100
H1401       H  0.60241041  0.55729998  0.00052169     0.19900
S1402       S  0.68599154  0.59446704  0.00780738    -0.30800
H1403       H  0.67458599  0.58747833  0.94678381     0.10200
C1404       C  0.64955477  0.59179475  0.89425610     0.03400
C1405       C  0.64908434  0.59130327  0.86325495    -0.13100
C1406       C  0.63861129  0.57069106  0.84777486    -0.08700
C1407       C  0.62937551  0.55035062  0.86370108     0.06800
C1408       C  0.62976739  0.55083714  0.89470189    -0.13800
S1409       S  0.66154820  0.61825824  0.91354785    -0.30800
H1410       H  0.65587072  0.60681221  0.85106173     0.11100
S1411       S  0.61716790  0.52340576  0.84579848    -0.27900
H1412       H  0.62231116  0.53515999  0.90694743     0.08300
H1413       H  0.67569182  0.58090230  0.03349603     0.26800
H1414       H  0.67126737  0.63265738  0.88849905     0.21600
H1415       H  0.63108884  0.53313005  0.82018864     0.26900
H1416       H  0.59980577  0.56150401  0.91362827     0.15700
C1417       C  0.43808056  0.51313109  0.19106763    -0.11600
C1418       C  0.44767285  0.51010138  0.16674177     0.15000
C1419       C  0.43399510  0.49826144  0.14150162     0.01900
C1420       C  0.41126929  0.49018063  0.14094340    -0.15900
C1421       C  0.40184396  0.49372877  0.16496623    -0.10700
C1422       C  0.41547225  0.50535920  0.19032023     0.08600
C1423       C  0.47223955  0.52034600  0.16789714     0.09600
S1424       S  0.44446227  0.49300219  0.10928505    -0.25100
H1425       H  0.40084319  0.48106687  0.12152939     0.19900
S1426       S  0.40555208  0.51192356  0.22172259    -0.30800
H1427       H  0.44856992  0.52226485  0.21043387     0.10200
C1428       C  0.48985920  0.54435592  0.16698843     0.03400
C1429       C  0.51297291  0.55350977  0.16717107    -0.13100
C1430       C  0.51889827  0.53917000  0.16770272    -0.08700
C1431       C  0.50117286  0.51509867  0.16919105     0.06800
C1432       C  0.47805970  0.50596288  0.16922766    -0.13800
S1433       S  0.48294386  0.56332510  0.16381916    -0.30800
H1434       H  0.52651193  0.57192128  0.16566502     0.11100
S1435       S  0.50682571  0.49516669  0.17160471    -0.27900
H1436       H  0.46448189  0.48750766  0.17017295     0.08300
H1437       H  0.39265005  0.51597222  0.20505955     0.26800
H1438       H  0.50578900  0.58401277  0.16221659     0.21600
H1439       H  0.52749571  0.50989834  0.18753764     0.26900
H1440       H  0.46751810  0.51321949  0.11120986     0.15700
loop_ 
_geom_bond_atom_site_label_1 
_geom_bond_atom_site_label_2 
_geom_bond_distance 
_geom_bond_site_symmetry_2 
_ccdc_geom_bond_type 
N1            N2   1.320       .  A
N1            C5   1.343       .  A
N1           Cu9   2.066       .  S
N2            C3   1.344       .  A
N2           Cu8   2.063       .  S
C3            C4   1.384       .  A
C3            H6   1.082       .  S
C4            C5   1.385       .  A
C4         C1430   1.477       .  S
C5            H7   1.082       .  S
Cu8          N11   2.063       .  S
Cu9          N19   2.067       .  S
Cu10         N12   2.088       .  S
Cu10         N18   2.088       .  S
N11          N12   1.322       .  A
N11          C15   1.341       .  A
N12          C13   1.347       .  A
C13          C14   1.389       .  A
C13          H16   1.082       .  S
C14          C15   1.382       .  A
C14        C1397   1.482       .  S
C15          H17   1.082       .  S
N18          N19   1.322       .  A
N18          C22   1.349       .  A
N19          C20   1.342       .  A
C20          C21   1.382       .  A
C20          H23   1.082       .  S
C21          C22   1.390       .  A
C21        C1382   1.486       .  S
C22          H24   1.081       .  S
N25          N26   1.322       .  A
N25          C29   1.345       .  A
N25         Cu33   2.072       .  S
N26          C27   1.343       .  A
N26         Cu32   2.067       .  S
C27          C28   1.382       .  A
C27          H30   1.082       .  S
C28          C29   1.383       .  A
C28        C1421   1.475       .  S
C29          H31   1.082       .  S
Cu32         N35   2.066       .  S
Cu33         N43   2.072       .  S
Cu34         N36   2.075       .  S
Cu34         N42   2.076       .  S
N35          N36   1.321       .  A
N35          C39   1.342       .  A
N36          C37   1.346       .  A
C37          C38   1.387       .  A
C37          H40   1.081       .  S
C38          C39   1.383       .  A
C38        C1358   1.483       .  S
C39          H41   1.082       .  S
N42          N43   1.322       .  A
N42          C46   1.344       .  A
N43          C44   1.345       .  A
C44          C45   1.386       .  A
C44          H47   1.082       .  S
C45          C46   1.385       .  A
C45        C1334   1.482       .  S
C46          H48   1.082       .  S
N49          N50   1.321       .  A
N49          C53   1.347       .  A
N49         Cu57   2.072       .  S
N50          C51   1.341       .  A
N50         Cu56   2.064       .  S
C51          C52   1.383       .  A
C51          H54   1.082       .  S
C52          C53   1.387       .  A
C52        C1310   1.481       .  S
C53          H55   1.081       .  S
Cu56         N59   2.064       .  S
Cu57         N67   2.072       .  S
Cu58         N60   2.070       .  S
Cu58         N66   2.070       .  S
N59          N60   1.321       .  A
N59          C63   1.341       .  A
N60          C61   1.347       .  A
C61          C62   1.386       .  A
C61          H64   1.082       .  S
C62          C63   1.382       .  A
C62        C1349   1.478       .  S
C63          H65   1.082       .  S
N66          N67   1.324       .  A
N66          C70   1.344       .  A
N67          C68   1.344       .  A
C68          C69   1.380       .  A
C68          H71   1.082       .  S
C69          C70   1.381       .  A
C69        C1286   1.471       .  S
C70          H72   1.082       .  S
N73          N74   1.320       .  A
N73          C77   1.346       .  A
N73         Cu81   2.077       .  S
N74          C75   1.341       .  A
N74         Cu80   2.064       .  S
C75          C76   1.385       .  A
C75          H78   1.082       .  S
C76          C77   1.390       .  A
C76        C1301   1.488       .  S
C77          H79   1.080       .  S
Cu80         N83   2.063       .  S
Cu81         N91   2.078       .  S
Cu82         N84   2.068       .  S
Cu82         N90   2.069       .  S
N83          N84   1.321       .  A
N83          C87   1.343       .  A
N84          C85   1.344       .  A
C85          C86   1.384       .  A
C85          H88   1.082       .  S
C86          C87   1.382       .  A
C86        C1406   1.474       .  S
C87          H89   1.082       .  S
N90          N91   1.322       .  A
N90          C94   1.344       .  A
N91          C92   1.345       .  A
C92          C93   1.386       .  A
C92          H95   1.081       .  S
C93          C94   1.384       .  A
C93        C1262   1.481       .  S
C94          H96   1.082       .  S
N97          N98   1.326       .  A
N97         C101   1.352   1_565  A
N97        Cu105   2.107       .  S
N98          C99   1.342       .  A
N98        Cu104   2.072       .  S
C99         C100   1.378   1_565  A
C99         H102   1.082       .  S
C100        C101   1.387       .  A
C100       C1238   1.479       .  S
C101        H103   1.082       .  S
Cu104       N107   2.069       .  S
Cu105       N115   2.106       .  S
Cu106       N108   2.054       .  S
Cu106       N114   2.054       .  S
N107        N108   1.318       .  A
N107        C111   1.345       .  A
N108        C109   1.343       .  A
C109        C110   1.384       .  A
C109        H112   1.082       .  S
C110        C111   1.386       .  A
C110       C1205   1.477       .  S
C111        H113   1.082       .  S
N114        N115   1.321       .  A
N114        C118   1.337       .  A
N115        C116   1.353       .  A
C116        C117   1.397       .  A
C116        H119   1.081       .  S
C117        C118   1.382       .  A
C117       C1181   1.494       .  S
C118        H120   1.082       .  S
N121        N122   1.323       .  A
N121        C125   1.351       .  A
N121       Cu129   2.096       .  S
N122        C123   1.341       .  A
N122       Cu128   2.061       .  S
C123        C124   1.378       .  A
C123        H126   1.082       .  S
C124        C125   1.388       .  A
C124       C1229   1.476       .  S
C125        H127   1.082       .  S
Cu128       N131   2.060       .  S
Cu129       N139   2.097       .  S
Cu130       N132   2.073       .  S
Cu130       N138   2.074       .  S
N131        N132   1.319       .  A
N131        C135   1.342       .  A
N132        C133   1.347       .  A
C133        C134   1.388       .  A
C133        H136   1.082       .  S
C134        C135   1.383       .  A
C134       C1157   1.481       .  S
C135        H137   1.082       .  S
N138        N139   1.323       .  A
N138        C142   1.342       .  A
N139        C140   1.349       .  A
C140        C141   1.391       .  A
C140        H143   1.081       .  S
C141        C142   1.385       .  A
C141       C1133   1.492       .  S
C142        H144   1.082       .  S
N145        N146   1.322       .  A
N145        C149   1.351       .  A
N145       Cu153   2.094       .  S
N146        C147   1.339       .  A
N146       Cu152   2.066       .  S
C147        C148   1.383       .  A
C147        H150   1.082       .  S
C148        C149   1.392       .  A
C148       C1109   1.490       .  S
C149        H151   1.081       .  S
Cu152       N155   2.065       .  S
Cu153       N163   2.095       .  S
Cu154       N156   2.069       .  S
Cu154       N162   2.070       .  S
N155        N156   1.319       .  A
N155        C159   1.344       .  A
N156        C157   1.344       .  A
C157        C158   1.386       .  A
C157        H160   1.082       .  S
C158        C159   1.386       .  A
C158       C1166   1.481       .  S
C159        H161   1.082       .  S
N162        N163   1.324       .  A
N162        C166   1.342       .  A
N163        C164   1.350       .  A
C164        C165   1.389       .  A
C164        H167   1.082       .  S
C165        C166   1.380       .  A
C165       C1085   1.482       .  S
C166        H168   1.082       .  S
N169        N170   1.322       .  A
N169        C173   1.353       .  A
N169       Cu177   2.095       .  S
N170        C171   1.338       .  A
N170       Cu176   2.060       .  S
C171        C172   1.380       .  A
C171        H174   1.082       .  S
C172        C173   1.392       .  A
C172       C1118   1.486       .  S
C173        H175   1.081       .  S
Cu176       N179   2.059       .  S
Cu177       N187   2.096       .  S
Cu178       N180   2.067       .  S
Cu178       N186   2.069       .  S
N179        N180   1.319       .  A
N179        C183   1.343       .  A
N180        C181   1.344       .  A
C181        C182   1.385       .  A
C181        H184   1.082       .  S
C182        C183   1.384       .  A
C182       C1214   1.479       .  S
C183        H185   1.082       .  S
N186        N187   1.324       .  A
N186        C190   1.343       .  A
N187        C188   1.348       .  A
C188        C189   1.388       .  A
C188        H191   1.081       .  S
C189        C190   1.381       .  A
C189       C1070   1.483       .  S
C190        H192   1.082       .  S
C193        C194   1.535       .  S
C193        C199   1.538       .  S
C193        C197   1.553       .  S
C193       C1013   1.539       .  S
C194        H201   1.085       .  S
C194        C195   1.364       .  D
C195        C196   1.536       .  S
C195        C989   1.493       .  S
C196        C200   1.536       .  S
C196        C198   1.529       .  S
C196        H202   1.108       .  S
C197        H203   1.082       .  S
C197        C198   1.368       .  D
C198       C1037   1.478       .  S
C199        H204   1.086       .  S
C199        C200   1.368       .  D
C200       C1373   1.483       .  S
C205        C206   1.548       .  S
C205        C211   1.544       .  S
C205        C209   1.535       .  S
C205        C926   1.543       .  S
C206        H213   1.078       .  S
C206        C207   1.364       .  D
C207        C208   1.534       .  S
C207        C965   1.478       .  S
C208        C212   1.537       .  S
C208        C210   1.533       .  S
C208        H214   1.109       .  S
C209        H215   1.086       .  S
C209        C210   1.361       .  D
C210        C941   1.480       .  S
C211        H216   1.086       .  S
C211        C212   1.372       .  D
C212       C1046   1.493       .  S
C217        C218   1.540   1_545  S
C217        C223   1.544       .  S
C217        C221   1.539       .  S
C217       C1190   1.548       .  S
C218        H225   1.085       .  S
C218        C219   1.376       .  D
C219        C220   1.545   1_565  S
C219       C1022   1.507       .  S
C220        C224   1.543       .  S
C220        C222   1.537       .  S
C220        H226   1.104       .  S
C221        H227   1.086       .  S
C221        C222   1.365       .  D
C222        C878   1.494       .  S
C223        H228   1.080       .  S
C223        C224   1.363       .  D
C224        C893   1.484       .  S
C229        C230   1.544       .  S
C229        C235   1.553       .  S
C229        C233   1.538       .  S
C229        C806   1.546       .  S
C230        H237   1.085       .  S
C230        C231   1.370       .  D
C231        C232   1.540       .  S
C231        C902   1.490       .  S
C232        C236   1.532       .  S
C232        C234   1.534       .  S
C232        H238   1.110       .  S
C233        H239   1.086       .  S
C233        C234   1.365       .  D
C234        C830   1.489       .  S
C235        H240   1.081       .  S
C235        C236   1.365       .  D
C236        C845   1.483       .  S
C241        C242   1.543       .  S
C241        C247   1.537       .  S
C241        C245   1.551       .  S
C241        C782   1.543       .  S
C242        H249   1.087       .  S
C242        C243   1.363       .  D
C243        C244   1.532       .  S
C243        C749   1.487       .  S
C244        C248   1.531       .  S
C244        C246   1.537       .  S
C244        H250   1.110       .  S
C245        H251   1.079       .  S
C245        C246   1.371       .  D
C246        C854   1.486       .  S
C247        H252   1.086       .  S
C247        C248   1.365       .  D
C248       C1325   1.481       .  S
C253        C254   1.544       .  S
C253        C259   1.549       .  S
C253        C257   1.537       .  S
C253       C1142   1.544       .  S
C254        H261   1.084       .  S
C254        C255   1.372       .  D
C255        C256   1.542       .  S
C255        C773   1.492       .  S
C256        C260   1.528       .  S
C256        C258   1.528       .  S
C256        H262   1.110       .  S
C257        H263   1.086       .  S
C257        C258   1.362       .  D
C258        C725   1.476       .  S
C259        H264   1.080       .  S
C259        C260   1.363       .  D
C260        C974   1.480   1_545  S
C265        C266   1.544       .  S
C265        C271   1.529       .  S
C265        C269   1.556       .  S
C265        C677   1.542       .  S
C266        H273   1.084       .  S
C266        C267   1.367       .  D
C267        C268   1.531       .  S
C267       C1253   1.479       .  S
C268        C272   1.532       .  S
C268        C270   1.536       .  S
C268        H274   1.108       .  S
C269        H275   1.084       .  S
C269        C270   1.377       .  D
C270        C701   1.494       .  S
C271        H276   1.088       .  S
C271        C272   1.353       .  D
C272        C998   1.472       .  S
C277        C278   1.536       .  S
C277        C283   1.545       .  S
C277        C281   1.540       .  S
C277        C638   1.543       .  S
C278        H285   1.086       .  S
C278        C279   1.365       .  D
C279        C280   1.540       .  S
C279        C710   1.491       .  S
C280        C284   1.543       .  S
C280        C282   1.541       .  S
C280        H286   1.101       .  S
C281        H287   1.086       .  S
C281        C282   1.373       .  D
C282        C950   1.507       .  S
C283        H288   1.081       .  S
C283        C284   1.362       .  D
C284        C653   1.479       .  S
C289        C290   1.545       .  S
C289        C295   1.543   1_565  S
C289        C293   1.536       .  S
C289       C1061   1.544       .  S
C290        H297   1.080       .  S
C290        C291   1.365       .  D
C291        C292   1.538       .  S
C291        C869   1.489       .  S
C292        C296   1.541   1_565  S
C292        C294   1.539       .  S
C292        H298   1.110       .  S
C293        H299   1.086       .  S
C293        C294   1.363       .  D
C294        C686   1.481       .  S
C295        H300   1.085       .  S
C295        C296   1.370       .  D
C296        C605   1.493       .  S
C301        C302   1.551       .  S
C301        C307   1.535       .  S
C301        C305   1.539       .  S
C301        C557   1.542       .  S
C302        H309   1.079       .  S
C302        C303   1.372       .  D
C303        C304   1.543       .  S
C303        C581   1.496       .  S
C304        C308   1.537       .  S
C304        C306   1.532       .  S
C304        H310   1.110       .  S
C305        H311   1.087       .  S
C305        C306   1.363       .  D
C306        C821   1.484       .  S
C307        H312   1.086       .  S
C307        C308   1.362       .  D
C308        C614   1.475       .  S
C313        C314   1.553       .  S
C313        C319   1.538       .  S
C313        C317   1.545       .  S
C313        C542   1.546       .  S
C314        H321   1.080       .  S
C314        C315   1.369       .  D
C315        C316   1.534       .  S
C315       C1277   1.490       .  S
C316        C320   1.529       .  S
C316        C318   1.537       .  S
C316        H322   1.110       .  S
C317        H323   1.085       .  S
C317        C318   1.369       .  D
C318        C590   1.485       .  S
C319        H324   1.087       .  S
C319        C320   1.361       .  D
C320        C758   1.480       .  S
C325        C326   1.550       .  S
C325        C331   1.537       .  S
C325        C329   1.533       .  S
C325       C1094   1.548       .  S
C326        H333   1.079       .  S
C326        C327   1.368       .  D
C327        C328   1.534       .  S
C327        C734   1.493       .  S
C328        C332   1.545       .  S
C328        C330   1.549       .  S
C328        H334   1.103       .  S
C329        H335   1.086       .  S
C329        C330   1.364       .  D
C330        C533   1.483       .  S
C331        H336   1.086       .  S
C331        C332   1.371       .  D
C332        C662   1.506   1_545  S
N337        N338   1.323       .  A
N337        C341   1.351       .  A
N337       Cu345   2.095       .  S
N338        C339   1.341       .  A
N338       Cu344   2.070       .  S
C339        C340   1.381       .  A
C339        H342   1.082       .  S
C340        C341   1.387       .  A
C340        C518   1.481       .  S
C341        H343   1.082       .  S
Cu344       N347   2.069       .  S
Cu345       N355   2.095       .  S
Cu346       N348   2.063       .  S
Cu346       N354   2.064       .  S
N347        N348   1.319       .  A
N347        C351   1.344       .  A
N348        C349   1.344       .  A
C349        C350   1.385   1_655  A
C349        H352   1.082       .  S
C350        C351   1.385   1_455  A
C350        C485   1.480       .  S
C351        H353   1.082       .  S
N354        N355   1.323       .  A
N354        C358   1.342       .  A
N355        C356   1.349       .  A
C356        C357   1.388       .  A
C356        H359   1.082       .  S
C357        C358   1.380       .  A
C357        C566   1.481       .  S
C358        H360   1.082       .  S
N361        N362   1.324       .  A
N361        C365   1.351       .  A
N361       Cu369   2.098       .  S
N362        C363   1.342       .  A
N362       Cu368   2.072       .  S
C363        C364   1.380       .  A
C363        H366   1.082       .  S
C364        C365   1.389       .  A
C364        C509   1.482       .  S
C365        H367   1.082       .  S
Cu368       N371   2.071       .  S
Cu369       N379   2.097       .  S
Cu370       N372   2.061       .  S
Cu370       N378   2.062       .  S
N371        N372   1.319       .  A
N371        C375   1.346       .  A
N372        C373   1.343       .  A
C373        C374   1.384       .  A
C373        H376   1.082       .  S
C374        C375   1.385       .  A
C374        C470   1.478       .  S
C375        H377   1.082       .  S
N378        N379   1.322       .  A
N378        C382   1.340       .  A
N379        C380   1.351       .  A
C380        C381   1.394       .  A
C380        H383   1.081       .  S
C381        C382   1.383       .  A
C381        C629   1.490       .  S
C382        H384   1.082       .  S
N385        N386   1.321       .  A
N385        C389   1.351       .  A
N385       Cu393   2.090       .  S
N386        C387   1.338       .  A
N386       Cu392   2.063       .  S
C387        C388   1.384       .  A
C387        H390   1.082       .  S
C388        C389   1.393       .  A
C388        C437   1.491       .  S
C389        H391   1.081       .  S
Cu392       N395   2.062   1_655  S
Cu393       N403   2.091       .  S
Cu394       N396   2.065       .  S
Cu394       N402   2.066   1_455  S
N395        N396   1.318       .  A
N395        C399   1.343       .  A
N396        C397   1.344       .  A
C397        C398   1.388       .  A
C397        H400   1.081       .  S
C398        C399   1.388       .  A
C398        C494   1.485       .  S
C399        H401   1.082       .  S
N402        N403   1.323       .  A
N402        C406   1.341       .  A
N403        C404   1.349       .  A
C404        C405   1.390       .  A
C404        H407   1.081       .  S
C405        C406   1.381       .  A
C405        C797   1.485       .  S
C406        H408   1.082   1_655  S
N409        N410   1.321       .  A
N409        C413   1.351       .  A
N409       Cu417   2.092       .  S
N410        C411   1.339       .  A
N410       Cu416   2.061       .  S
C411        C412   1.384       .  A
C411        H414   1.082       .  S
C412        C413   1.393       .  A
C412        C446   1.491       .  S
C413        H415   1.081       .  S
Cu416       N419   2.060       .  S
Cu417       N427   2.093       .  S
Cu418       N420   2.070       .  S
Cu418       N426   2.071       .  S
N419        N420   1.319       .  A
N419        C423   1.342       .  A
N420        C421   1.346       .  A
C421        C422   1.389       .  A
C421        H424   1.082       .  S
C422        C423   1.385       .  A
C422        C461   1.483       .  S
C423        H425   1.082       .  S
N426        N427   1.324       .  A
N426        C430   1.342       .  A
N427        C428   1.349       .  A
C428        C429   1.388       .  A
C428        H431   1.082       .  S
C429        C430   1.382       .  A
C429        C917   1.485       .  S
C430        H432   1.081       .  S
C433        C434   1.405       .  A
C433        C438   1.405       .  A
C433        H443   1.084       .  S
C434        C435   1.412       .  A
C434        C439   1.488       .  S
C435        C436   1.395       .  A
C435        S440   1.805       .  S
C436        C437   1.406       .  A
C436        H441   1.083       .  S
C437        C438   1.418       .  A
C438        S442   1.800       .  S
C439        C444   1.411       .  A
C439        C448   1.404       .  A
S440        H456   1.406       .  S
S442        H453   1.407       .  S
C444        C445   1.401       .  A
C444        S449   1.809       .  S
C445        C446   1.407       .  A
C445        H450   1.082       .  S
C446        C447   1.417       .  A
C447        C448   1.402       .  A
C447        S451   1.799       .  S
C448        H452   1.084       .  S
S449        H454   1.407       .  S
S451        H455   1.407       .  S
C457        C458   1.402       .  A
C457        C462   1.401       .  A
C457        H467   1.084       .  S
C458        C459   1.410       .  A
C458        C463   1.478       .  S
C459        C460   1.396   1_556  A
C459        S464   1.805       .  S
C460        C461   1.406       .  A
C460        H465   1.083       .  S
C461        C462   1.416   1_554  A
C462        S466   1.802   1_556  S
C463        C468   1.409       .  A
C463        C472   1.400       .  A
S464        H480   1.405       .  S
S466        H477   1.406       .  S
C468        C469   1.404       .  A
C468        S473   1.806       .  S
C469        C470   1.405       .  A
C469        H474   1.083       .  S
C470        C471   1.415       .  A
C471        C472   1.397       .  A
C471        S475   1.803       .  S
C472        H476   1.084       .  S
S473        H478   1.407       .  S
S475        H479   1.407       .  S
C481        C482   1.400       .  A
C481        C486   1.398   1_455  A
C481        H491   1.084   1_455  S
C482        C483   1.411       .  A
C482        C487   1.476       .  S
C483        C484   1.400       .  A
C483        S488   1.804       .  S
C484        C485   1.405       .  A
C484        H489   1.084       .  S
C485        C486   1.416   1_455  A
C486        S490   1.803       .  S
C487        C492   1.407       .  A
C487        C496   1.400       .  A
S488        H504   1.405       .  S
S490        H501   1.407       .  S
C492        C493   1.400   1_556  A
C492        S497   1.807   1_455  S
C493        C494   1.407       .  A
C493        H498   1.081       .  S
C494        C495   1.417       .  A
C495        C496   1.400   1_554  A
C495        S499   1.802       .  S
C496        H500   1.084       .  S
S497        H502   1.407       .  S
S499        H503   1.407       .  S
C505        C506   1.405       .  A
C505        C510   1.407       .  A
C505        H515   1.083       .  S
C506        C507   1.412       .  A
C506        C511   1.486       .  S
C507        C508   1.399       .  A
C507        S512   1.804       .  S
C508        C509   1.403       .  A
C508        H513   1.084       .  S
C509        C510   1.413       .  A
C510        S514   1.805       .  S
C511        C516   1.411       .  A
C511        C520   1.401       .  A
S512        H528   1.406       .  S
S514        H525   1.407       .  S
C516        C517   1.410       .  A
C516        S521   1.805       .  S
C517        C518   1.406       .  A
C517        H522   1.083       .  S
C518        C519   1.413       .  A
C519        C520   1.395       .  A
C519        S523   1.804       .  S
C520        H524   1.084       .  S
S521        H526   1.407       .  S
S523        H527   1.407       .  S
C529        C530   1.403       .  A
C529        C534   1.399       .  A
C529        H539   1.084       .  S
C530        C531   1.411       .  A
C530        C535   1.484       .  S
C531        C532   1.401       .  A
C531        S536   1.803       .  S
C532        C533   1.401       .  A
C532        H537   1.079       .  S
C533        C534   1.416       .  A
C534        S538   1.806       .  S
C535        C540   1.404       .  A
C535        C544   1.397       .  A
S536        H552   1.406       .  S
S538        H549   1.402       .  S
C540        C541   1.404       .  A
C540        S545   1.808       .  S
C541        C542   1.416       .  A
C541        H546   1.072       .  S
C542        C543   1.427       .  A
C543        C544   1.404       .  A
C543        S547   1.809       .  S
C544        H548   1.083       .  S
S545        H550   1.406       .  S
S547        H551   1.406       .  S
C553        C554   1.397       .  A
C553        C558   1.402       .  A
C553        H563   1.083       .  S
C554        C555   1.408       .  A
C554        C559   1.482       .  S
C555        C556   1.401       .  A
C555        S560   1.805       .  S
C556        C557   1.414       .  A
C556        H561   1.075       .  S
C557        C558   1.427       .  A
C558        S562   1.813       .  S
C559        C564   1.410       .  A
C559        C568   1.401       .  A
S560        H576   1.405       .  S
S562        H573   1.407       .  S
C564        C565   1.403       .  A
C564        S569   1.807       .  S
C565        C566   1.403       .  A
C565        H570   1.083       .  S
C566        C567   1.416       .  A
C567        C568   1.400       .  A
C567        S571   1.803       .  S
C568        H572   1.084       .  S
S569        H574   1.406       .  S
S571        H575   1.407       .  S
C577        C578   1.400       .  A
C577        C582   1.400       .  A
C577        H587   1.084       .  S
C578        C579   1.409   1_455  A
C578        C583   1.481       .  S
C579        C580   1.401       .  A
C579        S584   1.804       .  S
C580        C581   1.407       .  A
C580        H585   1.081       .  S
C581        C582   1.422   1_655  A
C582        S586   1.806       .  S
C583        C588   1.408       .  A
C583        C592   1.402       .  A
S584        H600   1.404       .  S
S586        H597   1.404       .  S
C588        C589   1.402       .  A
C588        S593   1.807       .  S
C589        C590   1.404       .  A
C589        H594   1.083       .  S
C590        C591   1.416       .  A
C591        C592   1.402       .  A
C591        S595   1.803       .  S
C592        H596   1.084       .  S
S593        H598   1.407       .  S
S595        H599   1.406       .  S
C601        C602   1.401       .  A
C601        C606   1.400       .  A
C601        H611   1.084       .  S
C602        C603   1.411       .  A
C602        C607   1.481       .  S
C603        C604   1.399       .  A
C603        S608   1.805       .  S
C604        C605   1.408       .  A
C604        H609   1.083       .  S
C605        C606   1.419       .  A
C606        S610   1.802       .  S
C607        C612   1.411       .  A
C607        C616   1.403       .  A
S608        H624   1.406       .  S
S610        H621   1.400       .  S
C612        C613   1.403       .  A
C612        S617   1.807       .  S
C613        C614   1.403       .  A
C613        H618   1.083       .  S
C614        C615   1.411       .  A
C615        C616   1.399       .  A
C615        S619   1.803       .  S
C616        H620   1.084       .  S
S617        H622   1.407       .  S
S619        H623   1.404       .  S
C625        C626   1.403       .  A
C625        C630   1.403       .  A
C625        H635   1.084       .  S
C626        C627   1.410       .  A
C626        C631   1.483       .  S
C627        C628   1.398       .  A
C627        S632   1.805       .  S
C628        C629   1.408       .  A
C628        H633   1.083       .  S
C629        C630   1.417       .  A
C630        S634   1.800       .  S
C631        C636   1.405       .  A
C631        C640   1.398       .  A
S632        H648   1.406       .  S
S634        H645   1.407       .  S
C636        C637   1.403       .  A
C636        S641   1.808       .  S
C637        C638   1.414       .  A
C637        H642   1.073       .  S
C638        C639   1.428       .  A
C639        C640   1.404       .  A
C639        S643   1.813       .  S
C640        H644   1.083       .  S
S641        H646   1.406       .  S
S643        H647   1.406       .  S
C649        C650   1.404       .  A
C649        C654   1.397       .  A
C649        H659   1.084       .  S
C650        C651   1.414       .  A
C650        C655   1.486       .  S
C651        C652   1.400       .  A
C651        S656   1.804       .  S
C652        C653   1.401   1_455  A
C652        H657   1.081   1_455  S
C653        C654   1.413   1_655  A
C654        S658   1.805       .  S
C655        C660   1.407       .  A
C655        C664   1.400       .  A
S656        H672   1.406       .  S
S658        H669   1.402   1_455  S
C660        C661   1.400       .  A
C660        S665   1.809       .  S
C661        C662   1.412       .  A
C661        H666   1.080       .  S
C662        C663   1.420       .  A
C663        C664   1.405       .  A
C663        S667   1.801   1_565  S
C664        H668   1.083       .  S
S665        H670   1.407       .  S
S667        H671   1.406   1_545  S
C673        C674   1.397       .  A
C673        C678   1.402       .  A
C673        H683   1.083       .  S
C674        C675   1.409       .  A
C674        C679   1.489       .  S
C675        C676   1.403       .  A
C675        S680   1.804       .  S
C676        C677   1.416       .  A
C676        H681   1.080       .  S
C677        C678   1.430       .  A
C678        S682   1.809       .  S
C679        C684   1.415       .  A
C679        C688   1.404       .  A
S680        H696   1.406       .  S
S682        H693   1.406       .  S
C684        C685   1.402       .  A
C684        S689   1.809       .  S
C685        C686   1.399       .  A
C685        H690   1.083       .  S
C686        C687   1.411       .  A
C687        C688   1.403       .  A
C687        S691   1.797       .  S
C688        H692   1.083       .  S
S689        H694   1.407       .  S
S691        H695   1.405       .  S
C697        C698   1.398       .  A
C697        C702   1.398       .  A
C697        H707   1.083       .  S
C698        C699   1.410       .  A
C698        C703   1.479       .  S
C699        C700   1.402       .  A
C699        S704   1.804       .  S
C700        C701   1.409       .  A
C700        H705   1.083       .  S
C701        C702   1.418       .  A
C702        S706   1.805       .  S
C703        C708   1.409       .  A
C703        C712   1.400       .  A
S704        H720   1.405       .  S
S706        H717   1.406       .  S
C708        C709   1.401       .  A
C708        S713   1.807       .  S
C709        C710   1.406       .  A
C709        H714   1.082       .  S
C710        C711   1.415       .  A
C711        C712   1.399       .  A
C711        S715   1.796       .  S
C712        H716   1.084       .  S
S713        H718   1.407       .  S
S715        H719   1.405       .  S
C721        C722   1.402       .  A
C721        C726   1.396       .  A
C721        H731   1.084       .  S
C722        C723   1.412       .  A
C722        C727   1.477       .  S
C723        C724   1.400       .  A
C723        S728   1.804   1_545  S
C724        C725   1.404       .  A
C724        H729   1.084       .  S
C725        C726   1.410       .  A
C726        S730   1.803       .  S
C727        C732   1.407       .  A
C727        C736   1.400       .  A
S728        H744   1.405       .  S
S730        H741   1.406       .  S
C732        C733   1.400       .  A
C732        S737   1.807       .  S
C733        C734   1.407       .  A
C733        H738   1.083       .  S
C734        C735   1.418       .  A
C735        C736   1.403       .  A
C735        S739   1.804       .  S
C736        H740   1.083       .  S
S737        H742   1.406   1_545  S
S739        H743   1.406       .  S
C745        C746   1.402       .  A
C745        C750   1.404       .  A
C745        H755   1.083       .  S
C746        C747   1.411       .  A
C746        C751   1.476       .  S
C747        C748   1.396       .  A
C747        S752   1.805       .  S
C748        C749   1.405       .  A
C748        H753   1.084       .  S
C749        C750   1.414       .  A
C750        S754   1.805       .  S
C751        C756   1.409       .  A
C751        C760   1.399       .  A
S752        H768   1.401       .  S
S754        H765   1.407       .  S
C756        C757   1.406       .  A
C756        S761   1.805       .  S
C757        C758   1.406       .  A
C757        H762   1.083       .  S
C758        C759   1.412       .  A
C759        C760   1.393       .  A
C759        S763   1.801       .  S
C760        H764   1.084       .  S
S761        H766   1.407       .  S
S763        H767   1.406       .  S
C769        C770   1.403       .  A
C769        C774   1.405       .  A
C769        H779   1.084       .  S
C770        C771   1.411       .  A
C770        C775   1.485       .  S
C771        C772   1.397       .  A
C771        S776   1.805       .  S
C772        C773   1.405       .  A
C772        H777   1.083       .  S
C773        C774   1.419       .  A
C774        S778   1.803       .  S
C775        C780   1.406       .  A
C775        C784   1.402       .  A
S776        H792   1.406       .  S
S778        H789   1.405       .  S
C780        C781   1.399       .  A
C780        S785   1.808       .  S
C781        C782   1.413       .  A
C781        H786   1.082       .  S
C782        C783   1.424       .  A
C783        C784   1.406       .  A
C783        S787   1.800       .  S
C784        H788   1.084       .  S
S785        H790   1.407       .  S
S787        H791   1.408       .  S
C793        C794   1.402       .  A
C793        C798   1.402       .  A
C793        H803   1.084       .  S
C794        C795   1.410       .  A
C794        C799   1.479       .  S
C795        C796   1.397       .  A
C795        S800   1.806       .  S
C796        C797   1.407       .  A
C796        H801   1.083       .  S
C797        C798   1.416       .  A
C798        S802   1.801       .  S
C799        C804   1.404       .  A
C799        C808   1.394       .  A
S800        H816   1.405       .  S
S802        H813   1.407   1_655  S
C804        C805   1.405       .  A
C804        S809   1.808   1_655  S
C805        C806   1.416       .  A
C805        H810   1.073       .  S
C806        C807   1.428       .  A
C807        C808   1.402       .  A
C807        S811   1.806       .  S
C808        H812   1.083       .  S
S809        H814   1.406       .  S
S811        H815   1.407       .  S
C817        C818   1.400       .  A
C817        C822   1.399       .  A
C817        H827   1.084       .  S
C818        C819   1.410       .  A
C818        C823   1.473       .  S
C819        C820   1.396       .  A
C819        S824   1.805       .  S
C820        C821   1.405       .  A
C820        H825   1.084       .  S
C821        C822   1.415       .  A
C822        S826   1.798       .  S
C823        C828   1.406       .  A
C823        C832   1.398       .  A
S824        H840   1.405       .  S
S826        H837   1.401       .  S
C828        C829   1.399       .  A
C828        S833   1.807       .  S
C829        C830   1.406       .  A
C829        H834   1.082       .  S
C830        C831   1.418       .  A
C831        C832   1.398       .  A
C831        S835   1.797       .  S
C832        H836   1.084       .  S
S833        H838   1.407       .  S
S835        H839   1.398       .  S
C841        C842   1.401       .  A
C841        C846   1.398   1_455  A
C841        H851   1.084       .  S
C842        C843   1.413       .  A
C842        C847   1.481       .  S
C843        C844   1.402   1_455  A
C843        S848   1.803       .  S
C844        C845   1.404       .  A
C844        H849   1.084       .  S
C845        C846   1.412       .  A
C846        S850   1.798       .  S
C847        C852   1.409       .  A
C847        C856   1.403       .  A
S848        H864   1.406       .  S
S850        H861   1.406       .  S
C852        C853   1.400       .  A
C852        S857   1.808       .  S
C853        C854   1.404       .  A
C853        H858   1.083       .  S
C854        C855   1.416       .  A
C855        C856   1.402       .  A
C855        S859   1.803       .  S
C856        H860   1.084       .  S
S857        H862   1.407       .  S
S859        H863   1.406       .  S
C865        C866   1.402       .  A
C865        C870   1.405       .  A
C865        H875   1.083       .  S
C866        C867   1.408   1_565  A
C866        C871   1.475       .  S
C867        C868   1.395       .  A
C867        S872   1.805       .  S
C868        C869   1.407   1_545  A
C868        H873   1.084       .  S
C869        C870   1.412       .  A
C870        S874   1.802       .  S
C871        C876   1.405   1_565  A
C871        C880   1.399       .  A
S872        H888   1.404       .  S
S874        H885   1.407       .  S
C876        C877   1.401       .  A
C876        S881   1.806       .  S
C877        C878   1.406       .  A
C877        H882   1.077       .  S
C878        C879   1.417   1_545  A
C879        C880   1.397       .  A
C879        S883   1.799       .  S
C880        H884   1.085       .  S
S881        H886   1.407       .  S
S883        H887   1.408       .  S
C889        C890   1.401       .  A
C889        C894   1.401       .  A
C889        H899   1.084       .  S
C890        C891   1.411       .  A
C890        C895   1.477       .  S
C891        C892   1.396       .  A
C891        S896   1.804       .  S
C892        C893   1.399       .  A
C892        H897   1.080       .  S
C893        C894   1.418       .  A
C894        S898   1.806       .  S
C895        C900   1.406       .  A
C895        C904   1.398       .  A
S896        H912   1.403       .  S
S898        H909   1.403       .  S
C900        C901   1.404       .  A
C900        S905   1.805       .  S
C901        C902   1.408       .  A
C901        H906   1.083       .  S
C902        C903   1.418       .  A
C903        C904   1.397       .  A
C903        S907   1.798       .  S
C904        H908   1.084       .  S
S905        H910   1.407       .  S
S907        H911   1.401       .  S
C913        C914   1.402       .  A
C913        C918   1.397       .  A
C913        H923   1.084       .  S
C914        C915   1.415       .  A
C914        C919   1.487       .  S
C915        C916   1.402       .  A
C915        S920   1.804       .  S
C916        C917   1.405       .  A
C916        H921   1.084       .  S
C917        C918   1.417       .  A
C918        S922   1.803       .  S
C919        C924   1.407       .  A
C919        C928   1.400       .  A
S920        H936   1.406       .  S
S922        H933   1.407       .  S
C924        C925   1.401       .  A
C924        S929   1.810       .  S
C925        C926   1.414       .  A
C925        H930   1.071       .  S
C926        C927   1.425       .  A
C927        C928   1.404       .  A
C927        S931   1.811       .  S
C928        H932   1.083       .  S
S929        H934   1.407       .  S
S931        H935   1.407       .  S
C937        C938   1.401       .  A
C937        C942   1.396       .  A
C937        H947   1.084       .  S
C938        C939   1.412       .  A
C938        C943   1.477       .  S
C939        C940   1.402       .  A
C939        S944   1.803       .  S
C940        C941   1.404       .  A
C940        H945   1.084       .  S
C941        C942   1.414       .  A
C942        S946   1.804       .  S
C943        C948   1.403       .  A
C943        C952   1.397       .  A
S944        H960   1.405       .  S
S946        H957   1.406       .  S
C948        C949   1.400       .  A
C948        S953   1.807       .  S
C949        C950   1.412       .  A
C949        H954   1.081       .  S
C950        C951   1.427       .  A
C951        C952   1.406       .  A
C951        S955   1.806       .  S
C952        H956   1.083       .  S
S953        H958   1.407       .  S
S955        H959   1.406       .  S
C961        C962   1.398       .  A
C961        C966   1.395   1_455  A
C961        H971   1.084       .  S
C962        C963   1.410       .  A
C962        C967   1.470       .  S
C963        C964   1.397   1_455  A
C963        S968   1.805       .  S
C964        C965   1.404       .  A
C964        H969   1.084       .  S
C965        C966   1.418       .  A
C966        S970   1.807       .  S
C967        C972   1.405       .  A
C967        C976   1.400       .  A
S968        H984   1.405       .  S
S970        H981   1.403       .  S
C972        C973   1.398       .  A
C972        S977   1.807       .  S
C973        C974   1.406       .  A
C973        H978   1.083       .  S
C974        C975   1.413       .  A
C975        C976   1.397       .  A
C975        S979   1.802   1_565  S
C976        H980   1.084       .  S
S977        H982   1.407       .  S
S979        H983   1.404       .  S
C985        C986   1.406       .  A
C985        C990   1.408       .  A
C985        H995   1.082       .  S
C986        C987   1.414       .  A
C986        C991   1.489       .  S
C987        C988   1.390       .  A
C987        S992   1.807       .  S
C988        C989   1.406       .  A
C988        H993   1.082       .  S
C989        C990   1.416       .  A
C990        S994   1.807       .  S
C991        C996   1.416       .  A
C991       C1000   1.404       .  A
S992       H1008   1.407       .  S
S994       H1005   1.407       .  S
C996        C997   1.406       .  A
C996       S1001   1.807       .  S
C997        C998   1.400       .  A
C997       H1002   1.083       .  S
C998        C999   1.408       .  A
C999       C1000   1.396       .  A
C999       S1003   1.810       .  S
C1000      H1004   1.083       .  S
S1001      H1006   1.407       .  S
S1003      H1007   1.406       .  S
C1009      C1010   1.403       .  A
C1009      C1014   1.400       .  A
C1009      H1019   1.082       .  S
C1010      C1011   1.415       .  A
C1010      C1015   1.498       .  S
C1011      C1012   1.404       .  A
C1011      S1016   1.804       .  S
C1012      C1013   1.411       .  A
C1012      H1017   1.079       .  S
C1013      C1014   1.422       .  A
C1014      S1018   1.812       .  S
C1015      C1020   1.413       .  A
C1015      C1024   1.405       .  A
S1016      H1032   1.407       .  S
S1018      H1029   1.407       .  S
C1020      C1021   1.402       .  A
C1020      S1025   1.810       .  S
C1021      C1022   1.410       .  A
C1021      H1026   1.079       .  S
C1022      C1023   1.422       .  A
C1023      C1024   1.402       .  A
C1023      S1027   1.802   1_565  S
C1024      H1028   1.083       .  S
S1025      H1030   1.406       .  S
S1027      H1031   1.401       .  S
C1033      C1034   1.403       .  A
C1033      C1038   1.401       .  A
C1033      H1043   1.084       .  S
C1034      C1035   1.410       .  A
C1034      C1039   1.476       .  S
C1035      C1036   1.396       .  A
C1035      S1040   1.805       .  S
C1036      C1037   1.404       .  A
C1036      H1041   1.084       .  S
C1037      C1038   1.412       .  A
C1038      S1042   1.802       .  S
C1039      C1044   1.408       .  A
C1039      C1048   1.397       .  A
S1040      H1056   1.405       .  S
S1042      H1053   1.406       .  S
C1044      C1045   1.402       .  A
C1044      S1049   1.807       .  S
C1045      C1046   1.407       .  A
C1045      H1050   1.082       .  S
C1046      C1047   1.420       .  A
C1047      C1048   1.399       .  A
C1047      S1051   1.799       .  S
C1048      H1052   1.084       .  S
S1049      H1054   1.407       .  S
S1051      H1055   1.400       .  S
C1057      C1058   1.400       .  A
C1057      C1062   1.405       .  A
C1057      H1067   1.083       .  S
C1058      C1059   1.406       .  A
C1058      C1063   1.482       .  S
C1059      C1060   1.398       .  A
C1059      S1064   1.806       .  S
C1060      C1061   1.416       .  A
C1060      H1065   1.074       .  S
C1061      C1062   1.424       .  A
C1062      S1066   1.809       .  S
C1063      C1068   1.409       .  A
C1063      C1072   1.402       .  A
S1064      H1080   1.406       .  S
S1066      H1077   1.406       .  S
C1068      C1069   1.404       .  A
C1068      S1073   1.807       .  S
C1069      C1070   1.407       .  A
C1069      H1074   1.083       .  S
C1070      C1071   1.415       .  A
C1071      C1072   1.399       .  A
C1071      S1075   1.802   1_565  S
C1072      H1076   1.084       .  S
S1073      H1078   1.406       .  S
S1075      H1079   1.407       .  S
C1081      C1082   1.404       .  A
C1081      C1086   1.403       .  A
C1081      H1091   1.084       .  S
C1082      C1083   1.410       .  A
C1082      C1087   1.484       .  S
C1083      C1084   1.399       .  A
C1083      S1088   1.803       .  S
C1084      C1085   1.405       .  A
C1084      H1089   1.084       .  S
C1085      C1086   1.414       .  A
C1086      S1090   1.802       .  S
C1087      C1092   1.402       .  A
C1087      C1096   1.399       .  A
S1088      H1104   1.406       .  S
S1090      H1101   1.406       .  S
C1092      C1093   1.403       .  A
C1092      S1097   1.808       .  S
C1093      C1094   1.417       .  A
C1093      H1098   1.071       .  S
C1094      C1095   1.426       .  A
C1095      C1096   1.405       .  A
C1095      S1099   1.811       .  S
C1096      H1100   1.082       .  S
S1097      H1102   1.407       .  S
S1099      H1103   1.406       .  S
C1105      C1106   1.405       .  A
C1105      C1110   1.405       .  A
C1105      H1115   1.084   1_545  S
C1106      C1107   1.411       .  A
C1106      C1111   1.486       .  S
C1107      C1108   1.396       .  A
C1107      S1112   1.805       .  S
C1108      C1109   1.406       .  A
C1108      H1113   1.083       .  S
C1109      C1110   1.418       .  A
C1110      S1114   1.800   1_545  S
C1111      C1116   1.410   1_545  A
C1111      C1120   1.405       .  A
S1112      H1128   1.407       .  S
S1114      H1125   1.407       .  S
C1116      C1117   1.399       .  A
C1116      S1121   1.808       .  S
C1117      C1118   1.406       .  A
C1117      H1122   1.083       .  S
C1118      C1119   1.415   1_565  A
C1119      C1120   1.404       .  A
C1119      S1123   1.800       .  S
C1120      H1124   1.084       .  S
S1121      H1126   1.407       .  S
S1123      H1127   1.406       .  S
C1129      C1130   1.403       .  A
C1129      C1134   1.403       .  A
C1129      H1139   1.084       .  S
C1130      C1131   1.410       .  A
C1130      C1135   1.482       .  S
C1131      C1132   1.397       .  A
C1131      S1136   1.806       .  S
C1132      C1133   1.408       .  A
C1132      H1137   1.082       .  S
C1133      C1134   1.418       .  A
C1134      S1138   1.801       .  S
C1135      C1140   1.403       .  A
C1135      C1144   1.398       .  A
S1136      H1152   1.406       .  S
S1138      H1149   1.407       .  S
C1140      C1141   1.400       .  A
C1140      S1145   1.809       .  S
C1141      C1142   1.416       .  A
C1141      H1146   1.072       .  S
C1142      C1143   1.426       .  A
C1143      C1144   1.406       .  A
C1143      S1147   1.810       .  S
C1144      H1148   1.082       .  S
S1145      H1150   1.407   1_545  S
S1147      H1151   1.406       .  S
C1153      C1154   1.402       .  A
C1153      C1158   1.401       .  A
C1153      H1163   1.084       .  S
C1154      C1155   1.411       .  A
C1154      C1159   1.476       .  S
C1155      C1156   1.397       .  A
C1155      S1160   1.806       .  S
C1156      C1157   1.405   1_556  A
C1156      H1161   1.084   1_556  S
C1157      C1158   1.415   1_554  A
C1158      S1162   1.802   1_556  S
C1159      C1164   1.407       .  A
C1159      C1168   1.401       .  A
S1160      H1176   1.404       .  S
S1162      H1173   1.407       .  S
C1164      C1165   1.402       .  A
C1164      S1169   1.806       .  S
C1165      C1166   1.406       .  A
C1165      H1170   1.082       .  S
C1166      C1167   1.416       .  A
C1167      C1168   1.399       .  A
C1167      S1171   1.803       .  S
C1168      H1172   1.084       .  S
S1169      H1174   1.407       .  S
S1171      H1175   1.406       .  S
C1177      C1178   1.405   1_545  A
C1177      C1182   1.405       .  A
C1177      H1187   1.084       .  S
C1178      C1179   1.410       .  A
C1178      C1183   1.488       .  S
C1179      C1180   1.397       .  A
C1179      S1184   1.805       .  S
C1180      C1181   1.409       .  A
C1180      H1185   1.083       .  S
C1181      C1182   1.418   1_565  A
C1182      S1186   1.800       .  S
C1183      C1188   1.406   1_565  A
C1183      C1192   1.398       .  A
S1184      H1200   1.406       .  S
S1186      H1197   1.407       .  S
C1188      C1189   1.405       .  A
C1188      S1193   1.809       .  S
C1189      C1190   1.415       .  A
C1189      H1194   1.072       .  S
C1190      C1191   1.426   1_545  A
C1191      C1192   1.404       .  A
C1191      S1195   1.808       .  S
C1192      H1196   1.082       .  S
S1193      H1198   1.406       .  S
S1195      H1199   1.406       .  S
C1201      C1202   1.401       .  A
C1201      C1206   1.399   1_556  A
C1201      H1211   1.084       .  S
C1202      C1203   1.412       .  A
C1202      C1207   1.474       .  S
C1203      C1204   1.398   1_556  A
C1203      S1208   1.807       .  S
C1204      C1205   1.404       .  A
C1204      H1209   1.084       .  S
C1205      C1206   1.413       .  A
C1206      S1210   1.803       .  S
C1207      C1212   1.407       .  A
C1207      C1216   1.399       .  A
S1208      H1224   1.402       .  S
S1210      H1221   1.407       .  S
C1212      C1213   1.402       .  A
C1212      S1217   1.806       .  S
C1213      C1214   1.405       .  A
C1213      H1218   1.083       .  S
C1214      C1215   1.417       .  A
C1215      C1216   1.398       .  A
C1215      S1219   1.802       .  S
C1216      H1220   1.084       .  S
S1217      H1222   1.406       .  S
S1219      H1223   1.407       .  S
C1225      C1226   1.403       .  A
C1225      C1230   1.399       .  A
C1225      H1235   1.084   1_545  S
C1226      C1227   1.414       .  A
C1226      C1231   1.485       .  S
C1227      C1228   1.404       .  A
C1227      S1232   1.803       .  S
C1228      C1229   1.403       .  A
C1228      H1233   1.084       .  S
C1229      C1230   1.412       .  A
C1230      S1234   1.804   1_545  S
C1231      C1236   1.411       .  A
C1231      C1240   1.402       .  A
S1232      H1248   1.406       .  S
S1234      H1245   1.406   1_565  S
C1236      C1237   1.408       .  A
C1236      S1241   1.805   1_545  S
C1237      C1238   1.404       .  A
C1237      H1242   1.083   1_545  S
C1238      C1239   1.413       .  A
C1239      C1240   1.399       .  A
C1239      S1243   1.803       .  S
C1240      H1244   1.084       .  S
S1241      H1246   1.407       .  S
S1243      H1247   1.406       .  S
C1249      C1250   1.402       .  A
C1249      C1254   1.401       .  A
C1249      H1259   1.083       .  S
C1250      C1251   1.412       .  A
C1250      C1255   1.477       .  S
C1251      C1252   1.399       .  A
C1251      S1256   1.804       .  S
C1252      C1253   1.404       .  A
C1252      H1257   1.084       .  S
C1253      C1254   1.409       .  A
C1254      S1258   1.805       .  S
C1255      C1260   1.408       .  A
C1255      C1264   1.401       .  A
S1256      H1272   1.405       .  S
S1258      H1269   1.407       .  S
C1260      C1261   1.402       .  A
C1260      S1265   1.807       .  S
C1261      C1262   1.406       .  A
C1261      H1266   1.082       .  S
C1262      C1263   1.414       .  A
C1263      C1264   1.399       .  A
C1263      S1267   1.803       .  S
C1264      H1268   1.084       .  S
S1265      H1270   1.407       .  S
S1267      H1271   1.407       .  S
C1273      C1274   1.398       .  A
C1273      C1278   1.400       .  A
C1273      H1283   1.083       .  S
C1274      C1275   1.410       .  A
C1274      C1279   1.475       .  S
C1275      C1276   1.399       .  A
C1275      S1280   1.805       .  S
C1276      C1277   1.407       .  A
C1276      H1281   1.084       .  S
C1277      C1278   1.417       .  A
C1278      S1282   1.804       .  S
C1279      C1284   1.408       .  A
C1279      C1288   1.400       .  A
S1280      H1296   1.405       .  S
S1282      H1293   1.406       .  S
C1284      C1285   1.402       .  A
C1284      S1289   1.805       .  S
C1285      C1286   1.402       .  A
C1285      H1290   1.083       .  S
C1286      C1287   1.415       .  A
C1287      C1288   1.397       .  A
C1287      S1291   1.804       .  S
C1288      H1292   1.084       .  S
S1289      H1294   1.407       .  S
S1291      H1295   1.406       .  S
C1297      C1298   1.401       .  A
C1297      C1302   1.399       .  A
C1297      H1307   1.084       .  S
C1298      C1299   1.411       .  A
C1298      C1303   1.480       .  S
C1299      C1300   1.397       .  A
C1299      S1304   1.805       .  S
C1300      C1301   1.407       .  A
C1300      H1305   1.083       .  S
C1301      C1302   1.419       .  A
C1302      S1306   1.800       .  S
C1303      C1308   1.410       .  A
C1303      C1312   1.402       .  A
S1304      H1320   1.406       .  S
S1306      H1317   1.407       .  S
C1308      C1309   1.399       .  A
C1308      S1313   1.808       .  S
C1309      C1310   1.404       .  A
C1309      H1314   1.083       .  S
C1310      C1311   1.416       .  A
C1311      C1312   1.401       .  A
C1311      S1315   1.801       .  S
C1312      H1316   1.084       .  S
S1313      H1318   1.407       .  S
S1315      H1319   1.407       .  S
C1321      C1322   1.402       .  A
C1321      C1326   1.399       .  A
C1321      H1331   1.084       .  S
C1322      C1323   1.413       .  A
C1322      C1327   1.477       .  S
C1323      C1324   1.399       .  A
C1323      S1328   1.807       .  S
C1324      C1325   1.404       .  A
C1324      H1329   1.084       .  S
C1325      C1326   1.413       .  A
C1326      S1330   1.803       .  S
C1327      C1332   1.407       .  A
C1327      C1336   1.401       .  A
S1328      H1344   1.402       .  S
S1330      H1341   1.407       .  S
C1332      C1333   1.402       .  A
C1332      S1337   1.806       .  S
C1333      C1334   1.406       .  A
C1333      H1338   1.082       .  S
C1334      C1335   1.414       .  A
C1335      C1336   1.403       .  A
C1335      S1339   1.807       .  S
C1336      H1340   1.083       .  S
S1337      H1342   1.407       .  S
S1339      H1343   1.407       .  S
C1345      C1346   1.402       .  A
C1345      C1350   1.402       .  A
C1345      H1355   1.084       .  S
C1346      C1347   1.411       .  A
C1346      C1351   1.476       .  S
C1347      C1348   1.395       .  A
C1347      S1352   1.805       .  S
C1348      C1349   1.403       .  A
C1348      H1353   1.084       .  S
C1349      C1350   1.415       .  A
C1350      S1354   1.802       .  S
C1351      C1356   1.407       .  A
C1351      C1360   1.399       .  A
S1352      H1368   1.405       .  S
S1354      H1365   1.406       .  S
C1356      C1357   1.401       .  A
C1356      S1361   1.807       .  S
C1357      C1358   1.406   1_556  A
C1357      H1362   1.083   1_556  S
C1358      C1359   1.417       .  A
C1359      C1360   1.403   1_554  A
C1359      S1363   1.807       .  S
C1360      H1364   1.083       .  S
S1361      H1366   1.407       .  S
S1363      H1367   1.407   1_554  S
C1369      C1370   1.403       .  A
C1369      C1374   1.400       .  A
C1369      H1379   1.084       .  S
C1370      C1371   1.411       .  A
C1370      C1375   1.481       .  S
C1371      C1372   1.400       .  A
C1371      S1376   1.804       .  S
C1372      C1373   1.405       .  A
C1372      H1377   1.084       .  S
C1373      C1374   1.412       .  A
C1374      S1378   1.802       .  S
C1375      C1380   1.407       .  A
C1375      C1384   1.402       .  A
S1376      H1392   1.405       .  S
S1378      H1389   1.407       .  S
C1380      C1381   1.401       .  A
C1380      S1385   1.807       .  S
C1381      C1382   1.406       .  A
C1381      H1386   1.083       .  S
C1382      C1383   1.416       .  A
C1383      C1384   1.406       .  A
C1383      S1387   1.807       .  S
C1384      H1388   1.083       .  S
S1385      H1390   1.407       .  S
S1387      H1391   1.407       .  S
C1393      C1394   1.402       .  A
C1393      C1398   1.399       .  A
C1393      H1403   1.084       .  S
C1394      C1395   1.410       .  A
C1394      C1399   1.475       .  S
C1395      C1396   1.397       .  A
C1395      S1400   1.806       .  S
C1396      C1397   1.407   1_556  A
C1396      H1401   1.083   1_556  S
C1397      C1398   1.414   1_554  A
C1398      S1402   1.802   1_556  S
C1399      C1404   1.408       .  A
C1399      C1408   1.402       .  A
S1400      H1416   1.405       .  S
S1402      H1413   1.406       .  S
C1404      C1405   1.400       .  A
C1404      S1409   1.807       .  S
C1405      C1406   1.403       .  A
C1405      H1410   1.083       .  S
C1406      C1407   1.413       .  A
C1407      C1408   1.399       .  A
C1407      S1411   1.803       .  S
C1408      H1412   1.084       .  S
S1409      H1414   1.407       .  S
S1411      H1415   1.407       .  S
C1417      C1418   1.403       .  A
C1417      C1422   1.398       .  A
C1417      H1427   1.084       .  S
C1418      C1419   1.412       .  A
C1418      C1423   1.478       .  S
C1419      C1420   1.398       .  A
C1419      S1424   1.805       .  S
C1420      C1421   1.404       .  A
C1420      H1425   1.084       .  S
C1421      C1422   1.412       .  A
C1422      S1426   1.803       .  S
C1423      C1428   1.409       .  A
C1423      C1432   1.402       .  A
S1424      H1440   1.405       .  S
S1426      H1437   1.407       .  S
C1428      C1429   1.400       .  A
C1428      S1433   1.808       .  S
C1429      C1430   1.404       .  A
C1429      H1434   1.082       .  S
C1430      C1431   1.414       .  A
C1431      C1432   1.400       .  A
C1431      S1435   1.803       .  S
C1432      H1436   1.084       .  S
S1433      H1438   1.406       .  S
S1435      H1439   1.406       .  S
