geometry optimzed in LAMMPS
_audit_creation_date              2020-11-30 
_audit_creation_method            'lammps2cif' 
_symmetry_space_group_name_H-M    'P1' 
_symmetry_Int_Tables_number       1 
_symmetry_cell_setting            triclinic 
loop_ 
_symmetry_equiv_pos_as_xyz 
  x,y,z 
_cell_length_a                    34.2833436904497 
_cell_length_b                    34.91532921609372 
_cell_length_c                    34.124533150271446 
_cell_angle_alpha                 90.89031327533434 
_cell_angle_beta                  89.89580074337177 
_cell_angle_gamma                 89.76386363035446 
loop_ 
_atom_site_label 
_atom_site_type_symbol 
_atom_site_fract_x 
_atom_site_fract_y 
_atom_site_fract_z 
_atom_site_charge 
O1          O  0.61731212  0.94146333  0.26782970    -0.80500
O2          O  0.45843943  0.09367055  0.26302958    -0.82050
O3          O  0.57839665  0.05239628  0.20640161    -0.79070
O4          O  0.56464229  0.05764389  0.33033278    -0.77460
O5          O  0.53443426  0.02095645  0.37647180    -0.79250
O6          O  0.54963011  0.01948646  0.15546454    -0.80180
O7          O  0.52459751  0.09609653  0.25638160    -0.81510
O8          O  0.61891107  0.00711276  0.26984784    -0.81800
Eu9        Eu  0.55027228  0.02991917  0.26630594     2.39200
O10         O  0.49282583  0.02861673  0.30327072    -0.89310
O11         O  0.55218684  0.97512967  0.22518444    -0.92910
C12         C  0.63528281  0.97365123  0.27041772     1.01780
C13         C  0.49008062  0.11136946  0.25523234     1.01600
C14         C  0.57376118  0.04434197  0.16995637     1.01540
C15         C  0.55639442  0.04892409  0.36583419     0.99400
H16         H  0.49765415  0.05102478  0.20825098     0.29150
O17         O  0.49653799  0.02840311  0.22411767    -1.01690
H18         H  0.57192996  0.97435668  0.32178712     0.29180
O19         O  0.54960517  0.97429029  0.30447234    -1.04240
O20         O  0.37090350  0.00392073  0.26352999    -0.81460
O21         O  0.52702915  0.85238091  0.25139771    -0.81000
O22         O  0.46142566  0.02737284  0.15019945    -0.79440
O23         O  0.44945731  0.02416172  0.37066615    -0.82780
O24         O  0.53809468  0.92867360  0.37359212    -0.80630
O25         O  0.54914893  0.93184042  0.15167696    -0.79280
O26         O  0.41688153  0.90251496  0.19506001    -0.80800
O27         O  0.41752065  0.89552827  0.32149018    -0.82730
O28         O  0.45046030  0.93401292  0.14718746    -0.79460
O29         O  0.44448148  0.93016992  0.37213889    -0.82140
O30         O  0.42151366  0.05377688  0.19746275    -0.77870
O31         O  0.58091958  0.90109541  0.20135791    -0.77910
O32         O  0.57111843  0.89471133  0.32611466    -0.77550
O33         O  0.41706513  0.05648001  0.32287973    -0.81050
O34         O  0.37332672  0.93850856  0.26099414    -0.80470
O35         O  0.46083568  0.85495297  0.25458152    -0.78800
Eu36       Eu  0.43865701  0.02764964  0.26123434     2.39770
Eu37       Eu  0.55041683  0.91934336  0.26294355     2.39570
Eu38       Eu  0.49938104  0.97555840  0.18118447     2.38400
Eu39       Eu  0.49250971  0.97409279  0.34259653     2.39880
Eu40       Eu  0.44116543  0.92094201  0.25934439     2.39790
O41         O  0.49432831  0.91884459  0.30205497    -0.93220
O42         O  0.44106358  0.97460933  0.21865920    -0.92110
C43         C  0.35496291  0.97043626  0.26399802     1.01950
C44         C  0.49284111  0.83674036  0.24883110     1.00670
C45         C  0.43532094  0.05169361  0.16233805     1.00060
C46         C  0.42557501  0.05035080  0.35893738     1.02080
C47         C  0.56295223  0.90279951  0.36216835     1.00990
C48         C  0.57522966  0.90851295  0.16508004     0.99840
C49         C  0.42395541  0.91043263  0.15910627     0.99900
C50         C  0.42173126  0.90380479  0.35816215     1.02510
H51         H  0.49754223  0.89845857  0.20239550     0.29880
O52         O  0.49729646  0.92050080  0.21986956    -1.05380
H53         H  0.41432363  0.97411842  0.31736791     0.31930
O54         O  0.43773657  0.97420252  0.30151087    -1.07940
C55         C  0.48234449  0.68371554  0.17985033     0.02760
C56         C  0.44739894  0.66194767  0.17917651    -0.13390
C57         C  0.44510746  0.62798432  0.15650161     0.00260
C58         C  0.47787765  0.61518997  0.13608881    -0.11920
C59         C  0.51229566  0.63597676  0.13642248     0.02750
C60         C  0.51431803  0.67062597  0.15729315    -0.11340
H61         H  0.42220410  0.67117563  0.19602284     0.08350
H62         H  0.47659541  0.58841570  0.11957731     0.05880
H63         H  0.54084615  0.68718486  0.15551560     0.05720
C64         C  0.48326092  0.24386634  0.15728499     0.02760
C65         C  0.44734323  0.25822583  0.14334862    -0.13390
C66         C  0.44620919  0.28332041  0.11182215     0.00260
C67         C  0.48101843  0.29584018  0.09545059    -0.11920
C68         C  0.51638428  0.28798782  0.11399275     0.02750
C69         C  0.51786372  0.25887191  0.14170803    -0.11340
H70         H  0.42010702  0.25088190  0.15739330     0.08350
H71         H  0.48009008  0.31657154  0.07214059     0.05880
H72         H  0.54587209  0.24945267  0.15211059     0.05720
C73         C  0.20197015  0.94506286  0.32452031     0.02760
C74         C  0.17943175  0.97821221  0.33034690    -0.13390
C75         C  0.14306028  0.97609760  0.34819066     0.00260
C76         C  0.12749981  0.94054140  0.35703784    -0.11920
C77         C  0.14987973  0.90702293  0.35281860     0.02750
C78         C  0.18750408  0.90926066  0.33631089    -0.11340
H79         H  0.19112838  0.00598841  0.32292339     0.08350
H80         H  0.09914703  0.93939423  0.37115642     0.05880
H81         H  0.20592117  0.88400936  0.33440248     0.05720
C82         C  0.79852682  0.94846464  0.29898082     0.02760
C83         C  0.82077372  0.98170865  0.30370515    -0.13390
C84         C  0.85636533  0.98054440  0.32334828     0.00260
C85         C  0.87163207  0.94553938  0.33535889    -0.11920
C86         C  0.84900462  0.91226639  0.33318792     0.02750
C87         C  0.81272153  0.91351456  0.31397786    -0.11340
H88         H  0.80823395  0.00930301  0.29657120     0.08350
H89         H  0.89874494  0.94524316  0.35169145     0.05880
H90         H  0.79426784  0.88839156  0.31363190     0.05720
O91         O  0.33896597  0.50984514  0.06120323    -0.80500
O92         O  0.11867713  0.51385805  0.06362371    -0.82050
O93         O  0.23586114  0.58724295  0.05527655    -0.79070
O94         O  0.22701882  0.49393017  0.14136926    -0.77460
O95         O  0.22537548  0.42853690  0.13622920    -0.79250
O96         O  0.23351221  0.59057990  0.98850548    -0.80180
O97         O  0.16757299  0.54514724  0.09649128    -0.81510
O98         O  0.29165451  0.54044253  0.09766994    -0.81800
Eu99       Eu  0.22907456  0.51929442  0.07373097     2.39200
O100        O  0.18759830  0.46579620  0.07224487    -0.89310
O101        O  0.26719874  0.52190506  0.01649253    -0.92910
C102        C  0.32735583  0.53364174  0.08852067     1.01780
C103        C  0.13157309  0.53935834  0.08817143     1.01600
C104        C  0.23730923  0.60623635  0.02303464     1.01540
C105        C  0.22492497  0.46010910  0.15618495     0.99400
H106        H  0.17245635  0.54550041  0.01959882     0.29150
O107        O  0.18789343  0.52228144  0.01851858    -1.01690
H108        H  0.28573797  0.46269209  0.09289027     0.29180
O109        O  0.26900956  0.46442128  0.07010115    -1.04240
O110        O  0.11077800  0.42992966  0.96693978    -0.81460
O111        O  0.33482887  0.42256501  0.96260552    -0.81000
O112        O  0.16405995  0.54753004  0.94030818    -0.79440
O113        O  0.16576276  0.38363714  0.08687621    -0.82780
O114        O  0.29035695  0.38381215  0.08342612    -0.80630
O115        O  0.28784569  0.54384628  0.93312543    -0.79280
O116        O  0.22031474  0.43593154  0.88836858    -0.80800
O117        O  0.23248226  0.34723978  0.97478436    -0.82730
O118        O  0.21515838  0.50133233  0.89274139    -0.79460
O119        O  0.23603021  0.34667466  0.04161896    -0.82140
O120        O  0.11714805  0.51161506  0.96973697    -0.77870
O121        O  0.33622625  0.51255969  0.96609255    -0.77910
O122        O  0.33709521  0.41459684  0.04765769    -0.77550
O123        O  0.11696895  0.41818066  0.05840716    -0.81050
O124        O  0.15483897  0.39693077  0.92916156    -0.80470
O125        O  0.28644184  0.39209486  0.92805269    -0.78800
Eu126      Eu  0.14711897  0.46759598  0.01665860     2.39770
Eu127      Eu  0.30621050  0.46696887  0.01175488     2.39570
Eu128      Eu  0.22643691  0.52394708  0.96147975     2.38400
Eu129      Eu  0.22722245  0.41124937  0.06671006     2.39880
Eu130      Eu  0.22271372  0.41362270  0.95457630     2.39790
O131        O  0.26375446  0.41458958  0.00934812    -0.93220
O132        O  0.18607545  0.46984210  0.96050147    -0.92110
C133        C  0.11909564  0.40684101  0.93811436     1.01950
C134        C  0.32271139  0.39873782  0.93589368     1.00670
C135        C  0.12860248  0.53710807  0.94520622     1.00060
C136        C  0.12960827  0.39052445  0.07995073     1.02080
C137        C  0.32552876  0.38837540  0.07119406     1.00990
C138        C  0.32385364  0.53655513  0.94038094     0.99840
C139        C  0.21405746  0.46892091  0.87367055     0.99900
C140        C  0.23903369  0.33059440  0.00765003     1.02510
H141        H  0.27958101  0.46855150  0.93253326     0.29880
O142        O  0.26440070  0.46798760  0.95649531    -1.05380
H143        H  0.16913672  0.38843870  0.01069289     0.31930
O144        O  0.18506656  0.41114499  0.01196236    -1.07940
C145        C  0.14240511  0.44675831  0.72297549     0.02760
C146        C  0.14082263  0.41164291  0.70193241    -0.13390
C147        C  0.12079792  0.40967170  0.66593103     0.00260
C148        C  0.10096832  0.44194872  0.65273833    -0.11920
C149        C  0.10255540  0.47669135  0.67306040     0.02750
C150        C  0.12355988  0.47910748  0.70786005    -0.11340
H151        H  0.15484887  0.38631704  0.71333248     0.08350
H152        H  0.08514256  0.44027803  0.62536290     0.05880
H153        H  0.12539395  0.50646507  0.72318688     0.05720
C154        C  0.19791337  0.44471499  0.32220544     0.02760
C155        C  0.18717554  0.40979262  0.33938924    -0.13390
C156        C  0.17232438  0.40926101  0.37789429     0.00260
C157        C  0.17043083  0.44392310  0.39930925    -0.11920
C158        C  0.17443874  0.47897952  0.38033635     0.02750
C159        C  0.19052688  0.47930702  0.34257241    -0.11340
H160        H  0.18723327  0.38380090  0.32162848     0.08350
H161        H  0.15789435  0.44404829  0.42852603     0.05880
H162        H  0.19282357  0.50618364  0.32726658     0.05720
C163        C  0.33165340  0.19386976  0.01199460     0.02760
C164        C  0.35424676  0.18585291  0.04537414    -0.13390
C165        C  0.37566815  0.15156878  0.04671784     0.00260
C166        C  0.37659679  0.12720423  0.01404431    -0.11920
C167        C  0.35204975  0.13350226  0.98219355     0.02750
C168        C  0.32969073  0.16694154  0.98124568    -0.11340
H169        H  0.35363447  0.20499272  0.07067244     0.08350
H170        H  0.39456493  0.10161348  0.01477144     0.05880
H171        H  0.31013426  0.17172785  0.95687280     0.05720
C172        C  0.29382119  0.76542932  0.02764241     0.02760
C173        C  0.30237658  0.78954572  0.06064212    -0.13390
C174        C  0.32431564  0.82341983  0.05628392     0.00260
C175        C  0.33314929  0.83601437  0.01902380    -0.11920
C176        C  0.32611253  0.81321937  0.98614250     0.02750
C177        C  0.30669846  0.77801152  0.99024422    -0.11340
H178        H  0.29351483  0.78229376  0.08977875     0.08350
H179        H  0.34987483  0.86214187  0.01582312     0.05880
H180        H  0.30341629  0.75981743  0.96450619     0.05720
O181        O  0.06538211  0.13149942  0.41667837    -0.80500
O182        O  0.90931083  0.13224117  0.57668244    -0.82050
O183        O  0.03210821  0.08765599  0.54474935    -0.79070
O184        O  0.94370608  0.08775178  0.44646166    -0.77460
O185        O  0.91043723  0.13480311  0.41399787    -0.79250
O186        O  0.05883451  0.13480255  0.58359183    -0.80180
O187        O  0.93828273  0.08553299  0.53847987    -0.81510
O188        O  0.03318595  0.08555997  0.45144164    -0.81800
Eu189      Eu  0.98666180  0.11728164  0.49702047     2.39200
O190        O  0.93082785  0.15689745  0.49719810    -0.89310
O191        O  0.04121006  0.15740813  0.49819047    -0.92910
C192        C  0.05790067  0.09657299  0.42530189     1.01780
C193        C  0.91441250  0.09698358  0.56555969     1.01600
C194        C  0.05355726  0.09955858  0.57373008     1.01540
C195        C  0.91953057  0.09966177  0.42013865     0.99400
H196        H  0.98448966  0.13950193  0.57973501     0.29150
O197        O  0.98547676  0.15480668  0.55630472    -1.01690
H198        H  0.98721356  0.14073011  0.41718626     0.29180
O199        O  0.98698884  0.15631036  0.44092541    -1.04240
O200        O  0.91486915  0.25949980  0.57987994    -0.81460
O201        O  0.07442967  0.25440554  0.42193988    -0.81000
O202        O  0.01142358  0.22223924  0.62148043    -0.79440
O203        O  0.86209948  0.19220457  0.46568754    -0.82780
O204        O  0.95360577  0.20159112  0.37334674    -0.80630
O205        O  0.10793474  0.18879343  0.53311767    -0.79280
O206        O  0.03626218  0.30079950  0.54521219    -0.80800
O207        O  0.94107348  0.30425168  0.45342919    -0.82730
O208        O  0.06875450  0.25369363  0.57795991    -0.79460
O209        O  0.90374214  0.25802836  0.42369131    -0.82140
O210        O  0.94583743  0.21256394  0.62298283    -0.77870
O211        O  0.11103848  0.18849008  0.46595755    -0.77910
O212        O  0.02024982  0.20016456  0.37148486    -0.77550
O213        O  0.86433283  0.19657789  0.53261814    -0.81050
O214        O  0.94953146  0.30289089  0.54464969    -0.80470
O215        O  0.04005675  0.30093420  0.45456604    -0.78800
Eu216      Eu  0.93109263  0.19577657  0.55415032     2.39770
Eu217      Eu  0.04368546  0.19406012  0.44059515     2.39570
Eu218      Eu  0.04003656  0.19535199  0.55628035     2.38400
Eu219      Eu  0.93086012  0.19598605  0.44161642     2.39880
Eu220      Eu  0.98979698  0.27214801  0.49599692     2.39790
O221        O  0.98796607  0.23381118  0.43920265    -0.93220
O222        O  0.98619043  0.23402194  0.55145697    -0.92110
C223        C  0.92722765  0.29356848  0.57308102     1.01950
C224        C  0.06778428  0.28971733  0.43138555     1.00670
C225        C  0.97733238  0.22576424  0.63867511     1.00060
C226        C  0.84597299  0.19280655  0.50009704     1.02080
C227        C  0.98643593  0.20311965  0.35470601     1.00990
C228        C  0.12676440  0.18656096  0.50031760     0.99840
C229        C  0.06114171  0.28879371  0.57109554     0.99900
C230        C  0.91231707  0.29322687  0.43136213     1.02510
H231        H  0.06771586  0.24659723  0.49925949     0.29880
O232        O  0.04409861  0.23168108  0.49836379    -1.05380
H233        H  0.90961610  0.25120350  0.49915398     0.31930
O234        O  0.93233685  0.23474856  0.49820542    -1.07940
C235        C  0.68203954  0.16183248  0.52272721     0.02760
C236        C  0.66078028  0.15485628  0.48821559    -0.13390
C237        C  0.62446762  0.13708255  0.48968019     0.00260
C238        C  0.60868589  0.12663755  0.52546927    -0.11920
C239        C  0.63051626  0.13003731  0.55967664     0.02750
C240        C  0.66667470  0.14889361  0.55881517    -0.11340
H241        H  0.67399573  0.15989377  0.45989196     0.08350
H242        H  0.58157780  0.11066254  0.52585544     0.05880
H243        H  0.68380018  0.15097743  0.58539557     0.05720
C244        C  0.29463429  0.16519781  0.51155653     0.02760
C245        C  0.31673552  0.15888148  0.47713686    -0.13390
C246        C  0.35574213  0.14670829  0.47943042     0.00260
C247        C  0.37340036  0.14395151  0.51624357    -0.11920
C248        C  0.35060647  0.14384103  0.55008840     0.02750
C249        C  0.31169454  0.15637495  0.54811747    -0.11340
H250        H  0.30242944  0.15957030  0.44886431     0.08350
H251        H  0.40314054  0.13330881  0.51794240     0.05880
H252        H  0.29395233  0.15615481  0.57440974     0.05720
C253        C  0.97844465  0.25258491  0.19110912     0.02760
C254        C  0.01291883  0.26945478  0.17639350    -0.13390
C255        C  0.01261213  0.28888494  0.14058978     0.00260
C256        C  0.97868343  0.28987393  0.11837442    -0.11920
C257        C  0.94338343  0.27859556  0.13445860     0.02750
C258        C  0.94362321  0.25696040  0.16901935    -0.11340
H259        H  0.03913764  0.27016348  0.19403443     0.08350
H260        H  0.97864649  0.30626925  0.09160339     0.05880
H261        H  0.91614315  0.24614230  0.17957828     0.05720
C262        C  0.95212776  0.32338551  0.78298203     0.02760
C263        C  0.98511127  0.33140399  0.80665104    -0.13390
C264        C  0.98269940  0.35409712  0.84152619     0.00260
C265        C  0.94476238  0.36712610  0.85293970    -0.11920
C266        C  0.91136393  0.36533233  0.82802108     0.02750
C267        C  0.91554575  0.34029558  0.79436731    -0.11340
H268        H  0.01247813  0.31822174  0.79824393     0.08350
H269        H  0.94127053  0.37863639  0.88183384     0.05880
H270        H  0.89050212  0.33456038  0.77608860     0.05720
O271        O  0.03621476  0.80179481  0.45575680    -0.80500
O272        O  0.03944954  0.58665372  0.45887298    -0.82050
O273        O  0.11197313  0.70752089  0.46919640    -0.79070
O274        O  0.02240090  0.69324950  0.37703962    -0.77460
O275        O  0.95571944  0.69275582  0.37849988    -0.79250
O276        O  0.11052571  0.70751860  0.53611431    -0.80180
O277        O  0.07496825  0.63242954  0.42792811    -0.81510
O278        O  0.06864604  0.75473980  0.42139094    -0.81800
Eu279      Eu  0.04484472  0.69414324  0.44556275     2.39200
O280        O  0.98820973  0.65544926  0.44333422    -0.89310
O281        O  0.04199372  0.73445489  0.50110794    -0.92910
C282        C  0.06226140  0.79005589  0.43062694     1.01780
C283        C  0.06787754  0.59733307  0.43661631     1.01600
C284        C  0.12828877  0.71237953  0.50307393     1.01540
C285        C  0.98865927  0.69302829  0.36029435     0.99400
H286        H  0.06865503  0.64123465  0.50369371     0.29150
O287        O  0.04509856  0.65647533  0.50219757    -1.01690
H288        H  0.98819941  0.74767736  0.42134328     0.29180
O289        O  0.98777840  0.73225317  0.44469641    -1.04240
O290        O  0.95091467  0.58751147  0.55281922    -0.81460
O291        O  0.93369992  0.80338136  0.53978076    -0.81000
O292        O  0.06149894  0.63524415  0.58415781    -0.79440
O293        O  0.90365022  0.63218722  0.42709967    -0.82780
O294        O  0.90964090  0.75473573  0.41714916    -0.80630
O295        O  0.06073040  0.75959979  0.58511057    -0.79280
O296        O  0.95127753  0.69677554  0.62420814    -0.80800
O297        O  0.86323011  0.69902286  0.53489003    -0.82730
O298        O  0.01771016  0.69396094  0.62583152    -0.79460
O299        O  0.86287246  0.70529041  0.46845586    -0.82140
O300        O  0.02824883  0.58895177  0.54996936    -0.77870
O301        O  0.02779242  0.80395087  0.54953331    -0.77910
O302        O  0.94231876  0.80228193  0.44994350    -0.77550
O303        O  0.93940199  0.58568398  0.45764295    -0.81050
O304        O  0.91533463  0.63418835  0.58479952    -0.80470
O305        O  0.90307560  0.75772976  0.57572791    -0.78800
Eu306      Eu  0.98833245  0.61783890  0.49976293     2.39770
Eu307      Eu  0.98615502  0.77344825  0.49950888     2.39570
Eu308      Eu  0.04243198  0.69751444  0.55786028     2.38400
Eu309      Eu  0.93107646  0.69415834  0.44522135     2.39880
Eu310      Eu  0.93102919  0.69614464  0.55597458     2.39790
O311        O  0.93114076  0.73419240  0.50027577    -0.93220
O312        O  0.98731917  0.65892730  0.55442007    -0.92110
C313        C  0.92755982  0.59945669  0.58020985     1.01950
C314        C  0.90739958  0.79247753  0.56447649     1.00670
C315        C  0.05113675  0.60023918  0.57765236     1.00060
C316        C  0.91117110  0.59713875  0.43554914     1.02080
C317        C  0.91776342  0.79025251  0.42364816     1.00990
C318        C  0.05164096  0.79438249  0.57702288     0.99840
C319        C  0.98386827  0.69363471  0.64256229     0.99900
C320        C  0.84574976  0.70591292  0.50235103     1.02510
H321        H  0.98421519  0.75250878  0.58016928     0.29880
O322        O  0.98580049  0.73629825  0.55694835    -1.05380
H323        H  0.90751145  0.63951637  0.50221099     0.31930
O324        O  0.93057981  0.65520247  0.50089903    -1.07940
C325        C  0.69201969  0.77797185  0.51510632     0.02760
C326        C  0.67827925  0.79680981  0.48119573    -0.13390
C327        C  0.64855597  0.82472622  0.48419453     0.00260
C328        C  0.63563134  0.83545334  0.52148515    -0.11920
C329        C  0.64236021  0.81249905  0.55381582     0.02750
C330        C  0.67074945  0.78333890  0.55059568    -0.11340
H331        H  0.69078424  0.78999728  0.45291500     0.08350
H332        H  0.61650449  0.86012341  0.52476623     0.05880
H333        H  0.67649516  0.76520224  0.57529548     0.05720
C334        C  0.28543584  0.77900163  0.50288422     0.02760
C335        C  0.30214752  0.79465428  0.46858128    -0.13390
C336        C  0.33777638  0.81468890  0.47055180     0.00260
C337        C  0.35631392  0.81975400  0.50651603    -0.11920
C338        C  0.33951513  0.80652859  0.54085850     0.02750
C339        C  0.30489897  0.78526227  0.53901261    -0.11340
H340        H  0.28689640  0.79290956  0.44088332     0.08350
H341        H  0.38256981  0.83698058  0.50817328     0.05880
H342        H  0.29252648  0.77500630  0.56608986     0.05720
C343        C  0.97750152  0.67693184  0.19257772     0.02760
C344        C  0.01156397  0.65994541  0.17712339    -0.13390
C345        C  0.01067639  0.64046152  0.14111950     0.00260
C346        C  0.97647010  0.63952248  0.11929936    -0.11920
C347        C  0.94183494  0.65282316  0.13600648     0.02750
C348        C  0.94283946  0.67503767  0.17051951    -0.11340
H349        H  0.03766807  0.65809342  0.19488671     0.08350
H350        H  0.97551538  0.62252121  0.09242904     0.05880
H351        H  0.91567942  0.68585013  0.18261351     0.05720
C352        C  0.97708251  0.63811073  0.80112187     0.02760
C353        C  0.01003979  0.61676831  0.81232788    -0.13390
C354        C  0.01009209  0.59760402  0.84793083     0.00260
C355        C  0.97788770  0.60009630  0.87247219    -0.11920
C356        C  0.94506628  0.62134810  0.86264173     0.02750
C357        C  0.94463866  0.64059473  0.82668273    -0.11340
H358        H  0.03527673  0.61451170  0.79325231     0.08350
H359        H  0.97832661  0.58425029  0.89947676     0.05880
H360        H  0.91913241  0.65698345  0.81847270     0.05720
O361        O  0.66824269  0.54340137  0.08970022    -0.80500
O362        O  0.67622886  0.38611573  0.93303355    -0.82050
O363        O  0.62461395  0.51011767  0.96831606    -0.79070
O364        O  0.62802030  0.41634717  0.05773425    -0.77460
O365        O  0.67624954  0.38752638  0.09329436    -0.79250
O366        O  0.67049896  0.53718185  0.92914566    -0.80180
O367        O  0.62583675  0.41811425  0.96355612    -0.81510
O368        O  0.62253930  0.51167713  0.05300588    -0.81800
Eu369      Eu  0.65554424  0.46254590  0.01204928     2.39200
O370        O  0.69879744  0.41034002  0.01399160    -0.89310
O371        O  0.69588834  0.51533854  0.01157832    -0.92910
C372        C  0.63309981  0.53770271  0.07814709     1.01780
C373        C  0.63962290  0.39369364  0.93814846     1.01600
C374        C  0.63514029  0.53343107  0.94105204     1.01540
C375        C  0.64036496  0.39232436  0.08340404     0.99400
H376        H  0.67976137  0.45931562  0.93161494     0.29150
O377        O  0.69505964  0.46043444  0.95544809    -1.01690
H378        H  0.67710830  0.46457592  0.09365790     0.29180
O379        O  0.69341686  0.46458152  0.07039524    -1.04240
O380        O  0.81070037  0.42046020  0.94378430    -0.81460
O381        O  0.79045682  0.55331629  0.08867812    -0.81000
O382        O  0.74556559  0.47656596  0.88750548    -0.79440
O383        O  0.73169444  0.34654007  0.04644931    -0.82780
O384        O  0.74086555  0.43318682  0.13869033    -0.80630
O385        O  0.72014221  0.58254776  0.97863596    -0.79280
O386        O  0.84229670  0.52275478  0.97297984    -0.80800
O387        O  0.84764725  0.41814636  0.05559241    -0.82730
O388        O  0.79177782  0.54886925  0.93886703    -0.79460
O389        O  0.80006549  0.38633486  0.08939127    -0.82140
O390        O  0.73489725  0.41238290  0.88883663    -0.77870
O391        O  0.72010035  0.58470146  0.04587028    -0.77910
O392        O  0.73615755  0.49848787  0.14003062    -0.77550
O393        O  0.74300748  0.34314663  0.98032560    -0.81050
O394        O  0.86498464  0.44552252  0.96768906    -0.80470
O395        O  0.84169153  0.52131668  0.05970133    -0.78800
Eu396      Eu  0.73958690  0.40898504  0.95915653     2.39770
Eu397      Eu  0.73178495  0.51971180  0.07008484     2.39570
Eu398      Eu  0.73296806  0.51518957  0.95366000     2.38400
Eu399      Eu  0.73804001  0.41292149  0.06999087     2.39880
Eu400      Eu  0.81724030  0.47043517  0.01559428     2.39790
O401        O  0.77701982  0.46883826  0.07231162    -0.93220
O402        O  0.77742188  0.46481181  0.95818710    -0.92110
C403        C  0.84760934  0.42767017  0.93974884     1.01950
C404        C  0.82676942  0.54859498  0.08089474     1.00670
C405        C  0.74582193  0.44203253  0.87042848     1.00060
C406        C  0.73397759  0.32838934  0.01334764     1.02080
C407        C  0.74017950  0.46567487  0.15697210     1.00990
C408        C  0.71681317  0.60067562  0.01215646     0.99840
C409        C  0.82783576  0.54696442  0.94837044     0.99900
C410        C  0.83560742  0.39152998  0.07894498     1.02510
H411        H  0.78297479  0.54422257  0.01280997     0.29880
O412        O  0.77011805  0.51973620  0.01259984    -1.05380
H413        H  0.79598561  0.38975554  0.01343295     0.31930
O414        O  0.77965088  0.41233776  0.01459112    -1.07940
C415        C  0.89307859  0.44325884  0.74802788     0.02760
C416        C  0.89549043  0.41051199  0.72435888    -0.13390
C417        C  0.89525794  0.41311026  0.68399689     0.00260
C418        C  0.89301919  0.44870892  0.66655472    -0.11920
C419        C  0.89153547  0.48225222  0.68918072     0.02750
C420        C  0.89152444  0.47970042  0.73053271    -0.11340
H421        H  0.89719030  0.38279943  0.73712083     0.08350
H422        H  0.89464395  0.45029518  0.63485232     0.05880
H423        H  0.88912334  0.50538221  0.74860056     0.05720
C424        C  0.77829874  0.44842738  0.32168007     0.02760
C425        C  0.78703717  0.48251693  0.34219029    -0.13390
C426        C  0.80720568  0.48140710  0.37781834     0.00260
C427        C  0.81553244  0.44627361  0.39484737    -0.11920
C428        C  0.80968915  0.41204370  0.37396491     0.02750
C429        C  0.79001267  0.41300730  0.33769042    -0.11340
H430        H  0.78268127  0.50980715  0.32807645     0.08350
H431        H  0.83294179  0.44588921  0.42138768     0.05880
H432        H  0.78721357  0.38691000  0.32035991     0.05720
C433        C  0.66718540  0.17885395  0.00980145     0.02760
C434        C  0.66824718  0.15936852  0.04532879    -0.13390
C435        C  0.64490447  0.12723052  0.05021772     0.00260
C436        C  0.62340348  0.11268473  0.01884813    -0.11920
C437        C  0.62120084  0.13206678  0.98339455     0.02750
C438        C  0.64274211  0.16595629  0.97927179    -0.11340
H439        H  0.68466807  0.17086489  0.06992477     0.08350
H440        H  0.60693568  0.08660655  0.02295355     0.05880
H441        H  0.64000501  0.18284309  0.95307497     0.05720
C442        C  0.67071098  0.76330645  0.01400524     0.02760
C443        C  0.67170572  0.78315840  0.05045815    -0.13390
C444        C  0.66414126  0.82279416  0.05281707     0.00260
C445        C  0.65709847  0.84279593  0.01857702    -0.11920
C446        C  0.64724055  0.82303191  0.98418698     0.02750
C447        C  0.65755107  0.78376959  0.98095477    -0.11340
H448        H  0.67641987  0.76756227  0.07724974     0.08350
H449        H  0.65261658  0.87348268  0.02053366     0.05880
H450        H  0.65477428  0.76937189  0.95306971     0.05720
O451        O  0.39165736  0.03874994  0.82405485    -0.80500
O452        O  0.55810687  0.89325250  0.83209601    -0.82050
O453        O  0.42817837  0.91879136  0.87614658    -0.79070
O454        O  0.51421102  0.01484389  0.88015820    -0.77460
O455        O  0.55194054  0.04278402  0.83351746    -0.79250
O456        O  0.39425940  0.88921889  0.82659777    -0.80180
O457        O  0.52176528  0.92223789  0.88016359    -0.81510
O458        O  0.42388401  0.00934577  0.87410240    -0.81800
Eu459      Eu  0.47422567  0.96538546  0.84707366     2.39200
O460        O  0.53296961  0.96540520  0.80989111    -0.89310
O461        O  0.42001965  0.96594439  0.80431271    -0.92910
C462        C  0.39805850  0.03278798  0.86046353     1.01780
C463        C  0.54939931  0.89924933  0.86829871     1.01600
C464        C  0.40216865  0.89495518  0.86309623     1.01540
C465        C  0.54015289  0.03921692  0.86910258     0.99400
H466        H  0.47602120  0.88895619  0.82375282     0.29150
O467        O  0.47624664  0.91085348  0.80675978    -1.01690
H468        H  0.47411474  0.04115707  0.82259757     0.29180
O469        O  0.47552457  0.01862286  0.80589196    -1.04240
O470        O  0.55508206  0.88198945  0.70716947    -0.81460
O471        O  0.40735153  0.04831949  0.70046709    -0.81000
O472        O  0.44486333  0.84413328  0.77306100    -0.79440
O473        O  0.60192400  0.99702439  0.75950933    -0.81580
O474        O  0.51120424  0.08685682  0.77509976    -0.80630
O475        O  0.35479887  0.93145783  0.75768545    -0.79280
O476        O  0.43694436  0.91646970  0.65337831    -0.80800
O477        O  0.52888949  0.01045972  0.65747212    -0.82730
O478        O  0.40445636  0.88356614  0.70112853    -0.79460
O479        O  0.55491329  0.04600002  0.70801086    -0.82140
O480        O  0.51146845  0.84393336  0.77533933    -0.77870
O481        O  0.35484219  0.99681175  0.75239250    -0.77910
O482        O  0.44442637  0.08710924  0.77330243    -0.77550
O483        O  0.60056389  0.93144341  0.75806852    -0.81050
O484        O  0.52686738  0.91537973  0.65737562    -0.80470
O485        O  0.43851937  0.01304125  0.65265205    -0.78800
Eu486      Eu  0.53304745  0.91073986  0.76843103     2.39770
Eu487      Eu  0.42210795  0.01971899  0.76321484     2.39570
Eu488      Eu  0.42232630  0.91053095  0.76465511     2.38400
Eu489      Eu  0.53328823  0.01926750  0.76902617     2.39880
Eu490      Eu  0.48076660  0.96428996  0.68507210     2.39790
O491        O  0.47962538  0.01938383  0.72607837    -0.93220
O492        O  0.47912464  0.91021362  0.72611363    -0.92110
C493        C  0.54953317  0.88868420  0.67066075     1.01950
C494        C  0.41596023  0.04093703  0.66443381     1.00670
C495        C  0.47806575  0.82714125  0.77757866     1.00060
C496        C  0.61804967  0.96376310  0.75377073     1.02080
C497        C  0.47777603  0.10405353  0.77730348     1.00990
C498        C  0.33792743  0.96380411  0.75166641     0.99840
C499        C  0.41300291  0.89040898  0.66521922     0.99900
C500        C  0.55070121  0.03777579  0.67147824     1.02510
H501        H  0.40168954  0.96400317  0.70531447     0.29880
O502        O  0.42356760  0.96430199  0.72317976    -1.05380
H503        H  0.55632959  0.96425709  0.71125246     0.31930
O504        O  0.53367773  0.96456804  0.72811010    -1.07940
C505        C  0.47604840  0.67115031  0.83551138     0.02760
C506        C  0.44090090  0.65029607  0.83691743    -0.13390
C507        C  0.44067986  0.61290941  0.85085445     0.00260
C508        C  0.47584779  0.59448911  0.85832444    -0.11920
C509        C  0.51001384  0.61564904  0.86313080     0.02750
C510        C  0.51047843  0.65389583  0.85018567    -0.11340
H511        H  0.41343208  0.66321654  0.82877436     0.08350
H512        H  0.47511107  0.56470628  0.86675100     0.05880
H513        H  0.53685604  0.67065091  0.85305720     0.05720
C514        C  0.48123546  0.26638784  0.82039145     0.02760
C515        C  0.44671161  0.28505071  0.83316584    -0.13390
C516        C  0.44837352  0.32138500  0.85164819     0.00260
C517        C  0.48448835  0.33958495  0.85553761    -0.11920
C518        C  0.51915315  0.32030623  0.84647777     0.02750
C519        C  0.51751820  0.28424030  0.82735177    -0.11340
H520        H  0.41907660  0.27020849  0.83117658     0.08350
H521        H  0.48592333  0.36720790  0.87046626     0.05880
H522        H  0.54431205  0.26867756  0.82125393     0.05720
C523        C  0.18234900  0.94996197  0.69208555     0.02760
C524        C  0.16525627  0.98482455  0.68151535    -0.13390
C525        C  0.12724124  0.98532144  0.66738042     0.00260
C526        C  0.10526630  0.95201981  0.66776405    -0.11920
C527        C  0.12403992  0.91626097  0.66956693     0.02750
C528        C  0.16275000  0.91533716  0.68376074    -0.11340
H529        H  0.18212559  0.01102011  0.68237228     0.08350
H530        H  0.07488658  0.95395902  0.65927119     0.05880
H531        H  0.17868657  0.88867087  0.68581171     0.05720
C532        C  0.76573743  0.95175034  0.67003256     0.02760
C533        C  0.78784870  0.98469757  0.66179522    -0.13390
C534        C  0.82290174  0.98138262  0.64069596     0.00260
C535        C  0.83646398  0.94541925  0.62913968    -0.11920
C536        C  0.81413791  0.91246286  0.63451814     0.02750
C537        C  0.77877832  0.91560073  0.65551742    -0.11340
H538        H  0.77706336  0.01282165  0.67034684     0.08350
H539        H  0.86383573  0.94353463  0.61317397     0.05880
H540        H  0.76098676  0.89049952  0.65975663     0.05720
C541        C  0.50714125  0.72335781  0.79664886    -0.26690
C542        C  0.47634378  0.71133860  0.82082119    -0.14760
C543        C  0.44621153  0.73783810  0.83006690     0.35870
C544        C  0.44656426  0.77447838  0.81382528    -0.26140
C545        C  0.47732595  0.78646697  0.78977452    -0.15370
C546        C  0.50813258  0.76065042  0.78156236     0.36950
N547        N  0.54032854  0.77199257  0.75765934    -0.89630
H548        H  0.53056985  0.70362758  0.78918289     0.18070
H549        H  0.42337064  0.79434439  0.82176979     0.18060
N550        N  0.41608902  0.72857124  0.85745682    -0.88650
H551        H  0.54204024  0.75318671  0.73357377     0.35440
H552        H  0.56586674  0.76897968  0.77405030     0.40530
H553        H  0.38918375  0.73170247  0.84344780     0.40150
H554        H  0.41712005  0.74842293  0.88069133     0.35040
C555        C  0.48229158  0.17319731  0.75877938    -0.26690
C556        C  0.47779987  0.14563848  0.78807541    -0.14760
C557        C  0.47508482  0.15832323  0.82776277     0.35870
C558        C  0.47579657  0.19771171  0.83673930    -0.26140
C559        C  0.47996231  0.22528501  0.80761398    -0.15370
C560        C  0.48375847  0.21277500  0.76799971     0.36950
N561        N  0.48867442  0.23914744  0.73644399    -0.89630
H562        H  0.48495818  0.16388102  0.72844536     0.18070
H563        H  0.47369930  0.20694273  0.86716271     0.18060
N564        N  0.47308809  0.13230958  0.85999842    -0.88650
H565        H  0.51605985  0.23385967  0.72390533     0.35440
H566        H  0.48882554  0.26750387  0.74656744     0.40530
H567        H  0.47231207  0.10379382  0.85058002     0.40150
H568        H  0.44710152  0.13770664  0.87520990     0.35040
C569        C  0.22913260  0.94532573  0.74717893    -0.26690
C570        C  0.22255122  0.95045319  0.70704272    -0.14760
C571        C  0.25354753  0.96083097  0.68236701     0.35870
C572        C  0.29061131  0.96672057  0.69849260    -0.26140
C573        C  0.29728678  0.96197212  0.73864303    -0.15370
C574        C  0.26628760  0.95096183  0.76341609     0.36950
N575        N  0.27126425  0.94569699  0.80483399    -0.89630
H576        H  0.20501854  0.93788332  0.76614786     0.18070
H577        H  0.31471904  0.97419871  0.67949632     0.18060
N578        N  0.24703634  0.96555319  0.64110363    -0.88650
H579        H  0.25346678  0.96575157  0.81937237     0.35440
H580        H  0.29977468  0.95161436  0.81364258     0.40530
H581        H  0.23883547  0.93894036  0.62939411     0.40150
H582        H  0.27291715  0.97315178  0.62700436     0.35040
C583        C  0.65857822  0.94292529  0.69790331    -0.26690
C584        C  0.65696652  0.96173939  0.73462001    -0.14760
C585        C  0.69135242  0.97873778  0.74970953     0.35870
C586        C  0.72646212  0.97517752  0.72822550    -0.26140
C587        C  0.72801690  0.95554841  0.69182284    -0.15370
C588        C  0.69331311  0.94031607  0.67626056     0.36950
N589        N  0.69285325  0.92365403  0.63764960    -0.89630
H590        H  0.63217369  0.93111074  0.68523317     0.18070
H591        H  0.75288960  0.98746380  0.74031527     0.18060
N592        N  0.69221524  0.99852976  0.78693193    -0.88650
H593        H  0.67280619  0.93888644  0.62081077     0.35440
H594        H  0.68287740  0.89559473  0.63975212     0.40530
H595        H  0.66512418  0.99795982  0.80088266     0.40150
H596        H  0.69856212  0.02725259  0.78163944     0.35040
C597        C  0.56935769  0.88730373  0.93762462    -0.26690
C598        C  0.57343177  0.87826931  0.89770051    -0.14760
C599        C  0.60080566  0.84929871  0.88643661     0.35870
C600        C  0.62553684  0.83315982  0.91468397    -0.26140
C601        C  0.62188175  0.84258897  0.95458518    -0.15370
C602        C  0.59202296  0.86902069  0.96603032     0.36950
N603        N  0.58317878  0.87645232  0.00653596    -0.89630
H604        H  0.54781605  0.90824595  0.94720843     0.18070
H605        H  0.64750094  0.81265304  0.90527003     0.18060
N606        N  0.60310173  0.83556215  0.84652468    -0.88650
H607        H  0.58610490  0.90585589  0.01202895     0.35440
H608        H  0.55409427  0.86906912  0.01156543     0.40530
H609        H  0.57689642  0.82152463  0.84023627     0.40150
H610        H  0.62515140  0.81499046  0.84315719     0.35040
C611        C  0.56130210  0.09720038  0.96231582    -0.26690
C612        C  0.59627893  0.11552547  0.95184923    -0.14760
C613        C  0.60956574  0.11214183  0.91296253     0.35870
C614        C  0.59006966  0.08791781  0.88666699    -0.26140
C615        C  0.55777206  0.06593429  0.89834668    -0.15370
C616        C  0.54258871  0.07151242  0.93659439     0.36950
N617        N  0.50881366  0.05095114  0.94964210    -0.89630
H618        H  0.54974587  0.10114594  0.99168471     0.18070
H619        H  0.60164011  0.08527800  0.85718375     0.18060
N620        N  0.64394158  0.13158692  0.90030335    -0.88650
H621        H  0.49997955  0.06071807  0.97740370     0.35440
H622        H  0.51720367  0.02238466  0.95312147     0.40530
H623        H  0.63633673  0.14897278  0.87681285     0.40150
H624        H  0.66401010  0.11110032  0.89013564     0.35040
C625        C  0.82495076  0.41313210  0.87118806    -0.26690
C626        C  0.86328830  0.42242669  0.89831323    -0.14760
C627        C  0.90572110  0.43683721  0.87717806     0.35870
C628        C  0.91492444  0.44280290  0.82730225    -0.26140
C629        C  0.88253011  0.43722665  0.78904620    -0.15370
C630        C  0.83520407  0.42300665  0.79744650     0.36950
N631        N  0.81092362  0.41817262  0.76269667    -0.89630
H632        H  0.80215911  0.39732475  0.88596088     0.18070
H633        H  0.94389132  0.45214390  0.81940797     0.18060
N634        N  0.93600841  0.44765765  0.90377834    -0.88650
H635        H  0.78625132  0.43576271  0.76284463     0.35440
H636        H  0.80445353  0.38955132  0.75624044     0.40530
H637        H  0.92651247  0.47226403  0.91882952     0.40150
H638        H  0.96061710  0.45502583  0.88760459     0.35040
C639        C  0.78585255  0.45307211  0.21088292    -0.26690
C640        C  0.74809679  0.46418459  0.19982156    -0.14760
C641        C  0.71920556  0.46908830  0.22937609     0.35870
C642        C  0.72918272  0.46287865  0.26897694    -0.26140
C643        C  0.76702250  0.45125835  0.27966489    -0.15370
C644        C  0.79566580  0.44675463  0.25024470     0.36950
N645        N  0.83509592  0.43703405  0.26061050    -0.89630
H646        H  0.80792111  0.44897440  0.18839073     0.18070
H647        H  0.70724160  0.46709741  0.29155349     0.18060
N648        N  0.67955751  0.47919604  0.22039323    -0.88650
H649        H  0.85311554  0.43702269  0.23586272     0.35440
H650        H  0.83513143  0.40893184  0.27068030     0.40530
H651        H  0.67560059  0.48259265  0.19033030     0.40150
H652        H  0.67377608  0.50582810  0.23362529     0.35040
C653        C  0.56911852  0.37134593  0.85503121    -0.26690
C654        C  0.55514748  0.33504683  0.86562241    -0.14760
C655        C  0.57017564  0.31789647  0.89999126     0.35870
C656        C  0.59893168  0.33695743  0.92182472    -0.26140
C657        C  0.61160571  0.37359411  0.91216644    -0.15370
C658        C  0.59705085  0.39086847  0.87810791     0.36950
N659        N  0.60988843  0.42854720  0.86778209    -0.89630
H660        H  0.55681922  0.38519633  0.82965078     0.18070
H661        H  0.61019049  0.32351034  0.94761404     0.18060
N662        N  0.55578573  0.28236878  0.91516801    -0.88650
H663        H  0.59607907  0.43745012  0.84217531     0.35440
H664        H  0.63969849  0.42683531  0.86143062     0.40530
H665        H  0.53351468  0.27063716  0.89824150     0.40150
H666        H  0.54346635  0.28828738  0.94267138     0.35040
C667        C  0.74303670  0.25769277  0.01156491    -0.26690
C668        C  0.71841548  0.28967758  0.01191031    -0.14760
C669        C  0.67768239  0.28518874  0.00946335     0.35870
C670        C  0.66205411  0.24843560  0.00734517    -0.26140
C671        C  0.68633923  0.21620998  0.00754957    -0.15370
C672        C  0.72741457  0.22066876  0.00931777     0.36950
N673        N  0.75390509  0.18862067  0.00882565    -0.89630
H674        H  0.77436329  0.26150963  0.01300622     0.18070
H675        H  0.63066652  0.24481348  0.00627310     0.18060
N676        N  0.65234164  0.31810163  0.00873753    -0.88650
H677        H  0.77145586  0.19092688  0.98389003     0.35440
H678        H  0.73915652  0.16267700  0.00574475     0.40530
H679        H  0.65753153  0.33455958  0.03382387     0.40150
H680        H  0.62321045  0.30960847  0.01082049     0.35040
C681        C  0.56602625  0.55496553  0.93608099    -0.26690
C682        C  0.60446971  0.55763209  0.92238567    -0.14760
C683        C  0.61254092  0.58372824  0.89175415     0.35870
C684        C  0.58151919  0.60284417  0.87310638    -0.26140
C685        C  0.54286586  0.59805926  0.88540557    -0.15370
C686        C  0.53563883  0.57532083  0.91870303     0.36950
N687        N  0.49739346  0.57299336  0.93548358    -0.89630
H688        H  0.55913831  0.53692084  0.96067692     0.18070
H689        H  0.58754336  0.62109472  0.84846173     0.18060
N690        N  0.65194139  0.59086904  0.87944129    -0.88650
H691        H  0.49867900  0.58286191  0.96446275     0.35440
H692        H  0.48907313  0.54421192  0.93569110     0.40530
H693        H  0.66593458  0.60525054  0.90251891     0.40150
H694        H  0.65244931  0.60950773  0.85576261     0.35040
C695        C  0.67422194  0.65442203  0.99040842    -0.26690
C696        C  0.70670481  0.64258067  0.01224236    -0.14760
C697        C  0.72627604  0.67070138  0.03558596     0.35870
C698        C  0.71464390  0.70935895  0.03386521    -0.26140
C699        C  0.68227502  0.72142075  0.01181094    -0.15370
C700        C  0.66120680  0.69275087  0.99067190     0.36950
N701        N  0.62483871  0.70049202  0.97171202    -0.89630
H702        H  0.65760928  0.63320749  0.97407111     0.18070
H703        H  0.73107205  0.73029796  0.05074116     0.18060
N704        N  0.75828692  0.66186235  0.06112543    -0.88650
H705        H  0.62985763  0.71431378  0.94535172     0.35440
H706        H  0.60723836  0.71733252  0.99021957     0.40530
H707        H  0.76492064  0.63284871  0.06096977     0.40150
H708        H  0.74961747  0.66881707  0.08976725     0.35040
C709        C  0.88695805  0.58836798  0.94808606    -0.26690
C710        C  0.85394323  0.57441762  0.92865325    -0.14760
C711        C  0.84667465  0.58664789  0.88978593     0.35870
C712        C  0.87528858  0.60609712  0.86927780    -0.26140
C713        C  0.91006714  0.61654920  0.88755609    -0.15370
C714        C  0.91378357  0.61158441  0.92853132     0.36950
N715        N  0.94625086  0.62802609  0.94930929    -0.89630
H716        H  0.89227349  0.58064258  0.97819052     0.18070
H717        H  0.87134252  0.61035340  0.83814174     0.18060
N718        N  0.81185955  0.57713628  0.86915777    -0.88650
H719        H  0.94477496  0.62151597  0.97908179     0.35440
H720        H  0.94372189  0.65778577  0.94744780     0.40530
H721        H  0.80829876  0.54782701  0.87198260     0.40150
H722        H  0.78842908  0.59129709  0.88271066     0.35040
C723        C  0.89042974  0.63576431  0.08873153    -0.26690
C724        C  0.90687311  0.63068838  0.12584176    -0.14760
C725        C  0.89568721  0.59858880  0.14856506     0.35870
C726        C  0.86730500  0.57372131  0.13410674    -0.26140
C727        C  0.85296706  0.57767846  0.09631825    -0.15370
C728        C  0.86408314  0.60892775  0.07331251     0.36950
N729        N  0.85051845  0.61190975  0.03365118    -0.89630
H730        H  0.90031018  0.65916608  0.07077300     0.18070
H731        H  0.85858567  0.54936662  0.15137791     0.18060
N732        N  0.91412265  0.58848245  0.18486292    -0.88650
H733        H  0.86111746  0.63683588  0.02087345     0.35440
H734        H  0.82023920  0.61425333  0.03397356     0.40530
H735        H  0.93894625  0.60465691  0.19033323     0.40150
H736        H  0.92434432  0.56032068  0.18195307     0.35040
C737        C  0.39281572  0.81257445  0.58979496    -0.26690
C738        C  0.35483949  0.82228549  0.57813104    -0.14760
C739        C  0.33516935  0.85301642  0.59704038     0.35870
C740        C  0.35468130  0.87472825  0.62585664    -0.26140
C741        C  0.39335549  0.86633353  0.63576001    -0.15370
C742        C  0.41197909  0.83390700  0.61921024     0.36950
N743        N  0.45030629  0.82312914  0.63209283    -0.89630
H744        H  0.40787302  0.78911372  0.57501978     0.18070
H745        H  0.34012248  0.89895273  0.63985543     0.18060
N746        N  0.29611293  0.86305157  0.58566064    -0.88650
H747        H  0.45999139  0.79867431  0.61684817     0.35440
H748        H  0.44825682  0.81564963  0.66157291     0.40530
H749        H  0.29714431  0.87262744  0.55680146     0.40150
H750        H  0.28570987  0.88600584  0.60277059     0.35040
C751        C  0.57737588  0.82815984  0.58137842    -0.26690
C752        C  0.61706199  0.82032658  0.58872033    -0.14760
C753        C  0.63237475  0.82959928  0.62592448     0.35870
C754        C  0.60918607  0.85089627  0.65269170    -0.26140
C755        C  0.57147107  0.86377670  0.64260987    -0.15370
C756        C  0.55509333  0.85130679  0.60683809     0.36950
N757        N  0.51629460  0.86264104  0.59593013    -0.89630
H758        H  0.56496935  0.81966499  0.55338583     0.18070
H759        H  0.62137075  0.85903567  0.68086746     0.18060
N760        N  0.67173621  0.81925051  0.63570906    -0.88650
H761        H  0.50763394  0.84831854  0.57026956     0.35440
H762        H  0.51713128  0.89167179  0.58899814     0.40530
H763        H  0.67265310  0.78946692  0.63804568     0.40150
H764        H  0.67903333  0.83005502  0.66347568     0.35040
C765        C  0.89717749  0.54101356  0.39312866    -0.26690
C766        C  0.88392114  0.56845902  0.42022155    -0.14760
C767        C  0.84437864  0.56905840  0.43198488     0.35870
C768        C  0.81870098  0.54133803  0.41668688    -0.26140
C769        C  0.83211786  0.51372809  0.38970830    -0.15370
C770        C  0.87146598  0.51385882  0.37730363     0.36950
N771        N  0.88521067  0.48562830  0.34935168    -0.89630
H772        H  0.92750275  0.54104960  0.38408537     0.18070
H773        H  0.78862343  0.54062624  0.42644748     0.18060
N774        N  0.83082597  0.59734040  0.45997420    -0.88650
H775        H  0.91499133  0.48912062  0.34390333     0.35440
H776        H  0.87085954  0.49043816  0.32286677     0.40530
H777        H  0.84515869  0.59244987  0.48646271     0.40150
H778        H  0.80102839  0.59393691  0.46540905     0.35040
C779        C  0.00924825  0.70623760  0.25148787    -0.26690
C780        C  0.97695528  0.68717246  0.23496098    -0.14760
C781        C  0.94820957  0.67230258  0.26017586     0.35870
C782        C  0.95303897  0.67527572  0.30050593    -0.26140
C783        C  0.98624206  0.69215271  0.31711006    -0.15370
C784        C  0.01455353  0.70846495  0.29234845     0.36950
N785        N  0.04817378  0.72745626  0.30843930    -0.89630
H786        H  0.03128318  0.71797546  0.23234532     0.18070
H787        H  0.93089766  0.66273703  0.31900038     0.18060
N788        N  0.91483162  0.65224079  0.24550171    -0.88650
H789        H  0.06430187  0.74036912  0.28625233     0.35440
H790        H  0.06635989  0.70643476  0.32010370     0.40530
H791        H  0.91482609  0.62480450  0.25737219     0.40150
H792        H  0.88981958  0.66655968  0.25556727     0.35040
C793        C  0.86191422  0.81534195  0.61756219    -0.26690
C794        C  0.87947100  0.82139370  0.58075281    -0.14760
C795        C  0.86835546  0.85394860  0.55935601     0.35870
C796        C  0.84183296  0.88019626  0.57585293    -0.26140
C797        C  0.82833120  0.87674330  0.61454172    -0.15370
C798        C  0.83671066  0.84285817  0.63487373     0.36950
N799        N  0.82141752  0.83729547  0.67356785    -0.89630
H800        H  0.86909292  0.78976200  0.63364958     0.18070
H801        H  0.83436796  0.90565609  0.55963458     0.18060
N802        N  0.88433577  0.86090340  0.52121689    -0.88650
H803        H  0.83269551  0.81215066  0.68543702     0.35440
H804        H  0.79142606  0.83286450  0.67075709     0.40530
H805        H  0.91325919  0.86950658  0.52511368     0.40150
H806        H  0.87020430  0.88408695  0.50827035     0.35040
C807        C  0.73997970  0.73429679  0.47906328    -0.26690
C808        C  0.72928706  0.75473428  0.51358313    -0.14760
C809        C  0.75643224  0.75590415  0.54492669     0.35870
C810        C  0.79260444  0.73719578  0.54093540    -0.26140
C811        C  0.80416695  0.71890248  0.50573582    -0.15370
C812        C  0.77722652  0.71712561  0.47452156     0.36950
N813        N  0.78780055  0.69843378  0.43819456    -0.89630
H814        H  0.71950358  0.73217136  0.45505194     0.18070
H815        H  0.81310833  0.73938000  0.56498062     0.18060
N816        N  0.74850604  0.77797374  0.58003062    -0.88650
H817        H  0.76499746  0.70015894  0.41798875     0.35440
H818        H  0.79190700  0.66937044  0.44388015     0.40530
H819        H  0.74762657  0.80684425  0.57237485     0.40150
H820        H  0.77108891  0.77525213  0.60037067     0.35040
C821        C  0.09334816  0.81592125  0.63359068    -0.26690
C822        C  0.06974399  0.82532873  0.60118143    -0.14760
C823        C  0.06358556  0.86429712  0.59276422     0.35870
C824        C  0.08276162  0.89213050  0.61482916    -0.26140
C825        C  0.10562078  0.88339315  0.64780561    -0.15370
C826        C  0.11057877  0.84450230  0.65752158     0.36950
N827        N  0.13233249  0.83401992  0.69168448    -0.89630
H828        H  0.09782643  0.78615075  0.64089534     0.18070
H829        H  0.07967483  0.92126456  0.60530278     0.18060
N830        N  0.03770987  0.87606099  0.56203972    -0.88650
H831        H  0.13320381  0.80425325  0.69451169     0.35440
H832        H  0.11737127  0.84489582  0.71617687     0.40530
H833        H  0.05135904  0.86921570  0.53558560     0.40150
H834        H  0.03380461  0.90578239  0.56224887     0.35040
C835        C  0.19539357  0.71911313  0.47294175    -0.26690
C836        C  0.16948878  0.72701720  0.50417773    -0.14760
C837        C  0.18232537  0.75162382  0.53490784     0.35870
C838        C  0.21985149  0.76773933  0.53349565    -0.26140
C839        C  0.24593175  0.75995760  0.50245069    -0.15370
C840        C  0.23351708  0.73469164  0.47203267     0.36950
N841        N  0.25965081  0.72446630  0.44056050    -0.89630
H842        H  0.18595397  0.70040398  0.44920785     0.18070
H843        H  0.22815960  0.78779675  0.55647080     0.18060
N844        N  0.15665091  0.76173936  0.56682526    -0.88650
H845        H  0.24610559  0.70581695  0.42060749     0.35440
H846        H  0.28304249  0.70941052  0.45261012     0.40530
H847        H  0.13423934  0.77852788  0.55533701     0.40150
H848        H  0.17089400  0.77891631  0.58764591     0.35040
C849        C  0.88079926  0.55229810  0.60688752    -0.26690
C850        C  0.91597073  0.57210391  0.61045157    -0.14760
C851        C  0.93963971  0.56671071  0.64374204     0.35870
C852        C  0.92831783  0.54043743  0.67234346    -0.26140
C853        C  0.89448236  0.51857688  0.66755335    -0.15370
C854        C  0.86990337  0.52529769  0.63498678     0.36950
N855        N  0.83509387  0.50300722  0.62959798    -0.89630
H856        H  0.86249012  0.55703950  0.58154979     0.18070
H857        H  0.94770264  0.53454292  0.69659275     0.18060
N858        N  0.97629742  0.58619405  0.64712507    -0.88650
H859        H  0.82066536  0.51085639  0.60395823     0.35440
H860        H  0.81631960  0.50957698  0.65293369     0.40530
H861        H  0.97086944  0.61549380  0.64670056     0.40150
H862        H  0.98957133  0.58037878  0.67396385     0.35040
C863        C  0.94717395  0.66725250  0.69869752    -0.26690
C864        C  0.98123415  0.68535046  0.68516885    -0.14760
C865        C  0.01257884  0.69091414  0.71148079     0.35870
C866        C  0.00951176  0.67710582  0.74988060    -0.26140
C867        C  0.97665226  0.65647206  0.76215402    -0.15370
C868        C  0.94517494  0.65136733  0.73609666     0.36950
N869        N  0.91226743  0.62825558  0.74674457    -0.89630
H870        H  0.92299911  0.66246122  0.67883702     0.18070
H871        H  0.03355578  0.68133378  0.77003304     0.18060
N872        N  0.04729761  0.71052606  0.69948274    -0.88650
H873        H  0.89174579  0.62724055  0.72412513     0.35440
H874        H  0.92232477  0.60019556  0.75020891     0.40530
H875        H  0.06322766  0.69170386  0.68145297     0.40150
H876        H  0.06517623  0.71622734  0.72365166     0.35040
C877        C  0.85088486  0.46264328  0.84427682    -0.26690
C878        C  0.87179322  0.38914536  0.83589720    -0.14760
C879        C  0.82857195  0.36265980  0.82593059     0.35870
C880        C  0.78257628  0.38509476  0.82435528    -0.26140
C881        C  0.77130666  0.43346009  0.83359799    -0.15370
C882        C  0.80284945  0.46938000  0.83701235     0.36950
N883        N  0.79079870  0.50348201  0.81759446    -0.89630
H884        H  0.86830868  0.48884222  0.84606816     0.18070
H885        H  0.75794746  0.36585953  0.82299546     0.18060
N886        N  0.83070531  0.32210574  0.82096499    -0.88650
H887        H  0.81461842  0.52152009  0.81348062     0.35440
H888        H  0.76871888  0.51724128  0.83353982     0.40530
H889        H  0.81849066  0.31545712  0.79369273     0.40150
H890        H  0.81285961  0.31019081  0.84237125     0.35040
C891        C  0.86922286  0.35870739  0.13317835    -0.26690
C892        C  0.86311566  0.36225222  0.09285097    -0.14760
C893        C  0.87765765  0.33376397  0.06692808     0.35870
C894        C  0.90046848  0.30365111  0.08170979    -0.26140
C895        C  0.90895770  0.30140122  0.12195992    -0.15370
C896        C  0.89265423  0.32915151  0.14798659     0.36950
N897        N  0.90166512  0.32857167  0.18910464    -0.89630
H898        H  0.85649247  0.37979634  0.15309534     0.18070
H899        H  0.91340969  0.28289472  0.06158232     0.18060
N900        N  0.86914523  0.33555057  0.02574145    -0.88650
H901        H  0.88662364  0.35033105  0.20423158     0.35440
H902        H  0.93133501  0.33468431  0.19223954     0.40530
H903        H  0.83909973  0.33172505  0.02235354     0.40150
H904        H  0.88260543  0.31283973  0.01056936     0.35040
C905        C  0.36608108  0.07891141  0.57339933    -0.26690
C906        C  0.36401523  0.11842906  0.58185027    -0.14760
C907        C  0.37841791  0.13245227  0.61778902     0.35870
C908        C  0.39502005  0.10652978  0.64442606    -0.26140
C909        C  0.39847416  0.06705457  0.63522214    -0.15370
C910        C  0.38353381  0.05317630  0.59934233     0.36950
N911        N  0.38563614  0.01302092  0.58954568    -0.89630
H912        H  0.35422783  0.06812544  0.54603653     0.18070
H913        H  0.40617205  0.11730267  0.67215459     0.18060
N914        N  0.37645500  0.17273516  0.62689237    -0.88650
H915        H  0.37380152  0.00766372  0.56178630     0.35440
H916        H  0.36816646  0.99850258  0.60954851     0.40530
H917        H  0.39418967  0.18685048  0.60682405     0.40150
H918        H  0.38813966  0.17833966  0.65466491     0.35040
C919        C  0.59453443  0.04428373  0.61400273    -0.26690
C920        C  0.57321816  0.06180454  0.64437992    -0.14760
C921        C  0.57574380  0.10201407  0.65032990     0.35870
C922        C  0.59788302  0.12403090  0.62430466    -0.26140
C923        C  0.61766523  0.10658508  0.59290593    -0.15370
C924        C  0.61714844  0.06624562  0.58848499     0.36950
N925        N  0.63836132  0.04805297  0.55687165    -0.89630
H926        H  0.59361323  0.01341464  0.61027405     0.18070
H927        H  0.59791412  0.15498493  0.62716119     0.18060
N928        N  0.55469324  0.12045915  0.68192406    -0.88650
H929        H  0.63467602  0.01834902  0.55732524     0.35440
H930        H  0.66802134  0.05319623  0.56157499     0.40530
H931        H  0.52491307  0.11676412  0.67657104     0.40150
H932        H  0.55974544  0.14997844  0.68229250     0.35040
C933        C  0.87508326  0.38443691  0.38484238    -0.26690
C934        C  0.83441216  0.37889273  0.38527255    -0.14760
C935        C  0.81946234  0.34421542  0.39991085     0.35870
C936        C  0.84563303  0.31631546  0.41363878    -0.26140
C937        C  0.88623128  0.32266938  0.41443709    -0.15370
C938        C  0.90104200  0.35701389  0.39950927     0.36950
N939        N  0.94236106  0.36391632  0.39916063    -0.89630
H940        H  0.88665364  0.41092997  0.37363495     0.18070
H941        H  0.83397698  0.28994411  0.42514628     0.18060
N942        N  0.77833173  0.33665391  0.40229187    -0.88650
H943        H  0.94842117  0.39081681  0.38761569     0.35440
H944        H  0.95514940  0.34366166  0.38019822     0.40530
H945        H  0.76183681  0.35944400  0.39175784     0.40150
H946        H  0.77116388  0.33407251  0.43192751     0.35040
C947        C  0.01149290  0.21550039  0.24523321    -0.26690
C948        C  0.97845637  0.23574958  0.23175325    -0.14760
C949        C  0.94758114  0.24232493  0.25870849     0.35870
C950        C  0.95049906  0.22954239  0.29741631    -0.26140
C951        C  0.98416661  0.21122149  0.31151431    -0.15370
C952        C  0.01482377  0.20345537  0.28462223     0.36950
N953        N  0.04929854  0.18364248  0.29724058    -0.89630
H954        H  0.03523708  0.20949255  0.22505259     0.18070
H955        H  0.92657247  0.23608094  0.31723866     0.18060
N956        N  0.91385195  0.26407252  0.24809027    -0.88650
H957        H  0.06920817  0.18060467  0.27414266     0.35440
H958        H  0.04103633  0.15597218  0.30498100     0.40530
H959        H  0.91186260  0.28798411  0.26682539     0.40150
H960        H  0.88921257  0.24710615  0.25251058     0.35040
C961        C  0.09704579  0.04910743  0.66109193    -0.26690
C962        C  0.11323882  0.01669885  0.64291840    -0.14760
C963        C  0.11159912  0.01237661  0.60148420     0.35870
C964        C  0.09118869  0.03935396  0.57968049    -0.26140
C965        C  0.07371121  0.07117662  0.59794989    -0.15370
C966        C  0.07748578  0.07669820  0.63899019     0.36950
N967        N  0.06061251  0.10978060  0.65820122    -0.89630
H968        H  0.09855824  0.05219654  0.69270415     0.18070
H969        H  0.08971437  0.03584418  0.54809030     0.18060
N970        N  0.13105179  0.98173821  0.58045331    -0.88650
H971        H  0.06647708  0.10966754  0.68825779     0.35440
H972        H  0.03033134  0.10792176  0.65521532     0.40530
H973        H  0.14646406  0.96367119  0.59898082     0.40150
H974        H  0.10991024  0.96534992  0.56601259     0.35040
C975        C  0.19461625  0.20496456  0.48172506    -0.26690
C976        C  0.16958957  0.18098369  0.50268099    -0.14760
C977        C  0.18574164  0.15211611  0.52626789     0.35870
C978        C  0.22643365  0.14800951  0.52851116    -0.26140
C979        C  0.25178047  0.17265854  0.50866794    -0.15370
C980        C  0.23540223  0.20177391  0.48497588     0.36950
N981        N  0.25879030  0.22965176  0.46527663    -0.89630
H982        H  0.18235113  0.22735809  0.46379463     0.18070
H983        H  0.23845400  0.12492424  0.54563098     0.18060
N984        N  0.16080516  0.12595116  0.54659993    -0.88650
H985        H  0.25709625  0.22389589  0.43517343     0.35440
H986        H  0.28804247  0.22820785  0.47343000     0.40530
H987        H  0.14751149  0.14107450  0.56969363     0.40150
H988        H  0.17724152  0.10430207  0.55959136     0.35040
C989        C  0.83722986  0.02220865  0.58443942    -0.26690
C990        C  0.84325795  0.01463749  0.62422347    -0.14760
C991        C  0.87410153  0.03272708  0.64431868     0.35870
C992        C  0.89668864  0.06021758  0.62485110    -0.26140
C993        C  0.89064287  0.06767249  0.58499971    -0.15370
C994        C  0.86156060  0.04740581  0.56422278     0.36950
N995        N  0.85688081  0.05234609  0.52274017    -0.89630
H996        H  0.81480708  0.00660400  0.56860242     0.18070
H997        H  0.91990216  0.07494758  0.64036074     0.18060
N998        N  0.88347707  0.02169205  0.68358706    -0.88650
H999        H  0.83337613  0.03623075  0.51221458     0.35440
H1000       H  0.88182450  0.04139428  0.50885423     0.40530
H1001       H  0.85992302  0.02946503  0.70154423     0.40150
H1002       H  0.90766603  0.03693452  0.69388340     0.35040
C1003       C  0.75172679  0.15218980  0.53813091    -0.26690
C1004       C  0.72344041  0.17414339  0.51911977    -0.14760
C1005       C  0.73588751  0.20334843  0.49321518     0.35870
C1006       C  0.77591338  0.20795677  0.48541473    -0.26140
C1007       C  0.80379471  0.18565603  0.50454831    -0.15370
C1008       C  0.79147017  0.15810085  0.53175896     0.36950
N1009       N  0.81969115  0.13576612  0.55259470    -0.89630
H1010       H  0.74289824  0.12932828  0.55727790     0.18070
H1011       H  0.78531043  0.23020240  0.46574985     0.18060
N1012       N  0.70915070  0.22989846  0.47579518    -0.88650
H1013       H  0.80609932  0.11592201  0.57068797     0.35440
H1014       H  0.83556962  0.12024355  0.53162652     0.40530
H1015       H  0.68108282  0.22743560  0.48732242     0.40150
H1016       H  0.70792572  0.22369602  0.44575733     0.35040
C1017       C  0.93723352  0.38176155  0.63644341    -0.26690
C1018       C  0.90367102  0.37973641  0.65930395    -0.14760
C1019       C  0.87803331  0.34853086  0.65541688     0.35870
C1020       C  0.88576631  0.32064804  0.62641719    -0.26140
C1021       C  0.91835656  0.32399772  0.60169761    -0.15370
C1022       C  0.94483751  0.35469817  0.60738260     0.36950
N1023       N  0.97975372  0.35828796  0.58424502    -0.89630
H1024       H  0.95707771  0.40562557  0.64049773     0.18070
H1025       H  0.86617544  0.29657618  0.62283156     0.18060
N1026       N  0.84377499  0.34608837  0.67959221    -0.88650
H1027       H  0.99871402  0.37843008  0.59672993     0.35440
H1028       H  0.97151493  0.36934011  0.55717015     0.40530
H1029       H  0.85290859  0.34089875  0.70821083     0.40150
H1030       H  0.82699054  0.32242211  0.67119332     0.35040
C1031       C  0.98642522  0.28712143  0.67966009    -0.26690
C1032       C  0.97252002  0.24912472  0.67709891    -0.14760
C1033       C  0.94968049  0.23644513  0.70930808     0.35870
C1034       C  0.94259294  0.26101119  0.74268474    -0.26140
C1035       C  0.95739849  0.29866588  0.74546778    -0.15370
C1036       C  0.97982004  0.31142634  0.71316591     0.36950
N1037       N  0.99591219  0.34935996  0.71438002    -0.89630
H1038       H  0.00161119  0.29854155  0.65463167     0.18070
H1039       H  0.92573087  0.25040253  0.76706046     0.18060
N1040       N  0.93440436  0.19817227  0.70866935    -0.88650
H1041       H  0.01147931  0.35476185  0.68868600     0.35440
H1042       H  0.97268127  0.36881696  0.71535443     0.40530
H1043       H  0.91276434  0.19681734  0.68718867     0.40150
H1044       H  0.92052262  0.19229518  0.73519361     0.35040
C1045       C  0.32307628  0.84231570  0.92007418    -0.26690
C1046       C  0.34547708  0.82532823  0.94951166    -0.14760
C1047       C  0.38661968  0.82950465  0.94871496     0.35870
C1048       C  0.40389210  0.85259924  0.92049358    -0.26140
C1049       C  0.38156484  0.87080342  0.89189017    -0.15370
C1050       C  0.34076937  0.86455185  0.89077111     0.36950
N1051       N  0.31719108  0.88264660  0.86153418    -0.89630
H1052       H  0.29159144  0.83989513  0.92118507     0.18070
H1053       H  0.43528790  0.85621868  0.92084714     0.18060
N1054       N  0.41167890  0.81161575  0.97690373    -0.88650
H1055       H  0.28761941  0.87738372  0.86659092     0.35440
H1056       H  0.32374060  0.86960817  0.83453767     0.40530
H1057       H  0.39653008  0.79248834  0.99448484     0.40150
H1058       H  0.42291680  0.83315650  0.99522056     0.35040
C1059       C  0.35506242  0.11945932  0.91124982    -0.26690
C1060       C  0.35150122  0.10562399  0.94937144    -0.14760
C1061       C  0.35373726  0.06567029  0.95567003     0.35870
C1062       C  0.36744876  0.04179370  0.92554684    -0.26140
C1063       C  0.37585100  0.05651373  0.88858165    -0.15370
C1064       C  0.36626145  0.09509285  0.88036930     0.36950
N1065       N  0.36978856  0.11003934  0.84144644    -0.89630
H1066       H  0.35210613  0.14984511  0.90593701     0.18070
H1067       H  0.37220696  0.01167640  0.93124806     0.18060
N1068       N  0.34239554  0.04852328  0.99198183    -0.88650
H1069       H  0.36031646  0.13852525  0.84065874     0.35440
H1070       H  0.39929994  0.11027676  0.83399394     0.40530
H1071       H  0.32884276  0.06829954  0.01086287     0.40150
H1072       H  0.36750101  0.03819081  0.00565890     0.35040
C1073       C  0.13498075  0.57635857  0.41588808    -0.26690
C1074       C  0.09512707  0.56751526  0.42100396    -0.14760
C1075       C  0.08215127  0.53029298  0.41135819     0.35870
C1076       C  0.10891542  0.50327696  0.39682178    -0.26140
C1077       C  0.14896869  0.51113321  0.39390654    -0.15370
C1078       C  0.16216316  0.54854807  0.40288777     0.36950
N1079       N  0.20255794  0.55911528  0.40029492    -0.89630
H1080       H  0.14537238  0.60485600  0.42319344     0.18070
H1081       H  0.09826775  0.47554327  0.38759002     0.18060
N1082       N  0.04173189  0.52009010  0.41528185    -0.88650
H1083       H  0.20505333  0.57938660  0.37821264     0.35440
H1084       H  0.22012161  0.53585257  0.39212257     0.40530
H1085       H  0.03600299  0.51720554  0.44518027     0.40150
H1086       H  0.03652564  0.49308751  0.40272351     0.35040
C1087       C  0.10997026  0.38605881  0.40484032    -0.26690
C1088       C  0.14775355  0.37675297  0.39161608    -0.14760
C1089       C  0.15894303  0.33758075  0.39023572     0.35870
C1090       C  0.13199631  0.30949556  0.40193238    -0.26140
C1091       C  0.09444205  0.31949649  0.41590887    -0.15370
C1092       C  0.08372040  0.35846695  0.41715365     0.36950
N1093       N  0.04589022  0.37058314  0.43051417    -0.89630
H1094       H  0.10000591  0.41536231  0.40542399     0.18070
H1095       H  0.14111860  0.27974001  0.40140577     0.18060
N1096       N  0.19752314  0.32525566  0.37921136    -0.88650
H1097       H  0.03232783  0.38557236  0.40798008     0.35440
H1098       H  0.04958717  0.38942534  0.45433089     0.40530
H1099       H  0.21623896  0.34836470  0.37533224     0.40150
H1100       H  0.19543018  0.31050694  0.35240764     0.35040
C1101       C  0.03992138  0.53865741  0.60994208    -0.26690
C1102       C  0.06421624  0.57054766  0.60487842    -0.14760
C1103       C  0.09890397  0.57373599  0.62687905     0.35870
C1104       C  0.10971389  0.54363965  0.65136043    -0.26140
C1105       C  0.08616801  0.51105759  0.65475760    -0.15370
C1106       C  0.04991806  0.50966398  0.63557702     0.36950
N1107       N  0.02331881  0.47873412  0.64189129    -0.89630
H1108       H  0.01243289  0.53641193  0.59444368     0.18070
H1109       H  0.13766442  0.54472487  0.66608151     0.18060
N1110       N  0.12370876  0.60658781  0.62326482    -0.88650
H1111       H  0.01744104  0.46555528  0.61482298     0.35440
H1112       H  0.99716856  0.49026861  0.65267509     0.40530
H1113       H  0.13481228  0.60639549  0.59470936     0.40150
H1114       H  0.14768356  0.60455812  0.64202515     0.35040
C1115       C  0.10274535  0.34134116  0.65943647    -0.26690
C1116       C  0.11724138  0.37427204  0.64184256    -0.14760
C1117       C  0.11914181  0.37573980  0.60027677     0.35870
C1118       C  0.09994889  0.34796159  0.57778174    -0.26140
C1119       C  0.08249743  0.31666086  0.59555357    -0.15370
C1120       C  0.08691225  0.31157995  0.63651986     0.36950
N1121       N  0.07388396  0.27715129  0.65497960    -0.89630
H1122       H  0.10196043  0.33963609  0.69111058     0.18070
H1123       H  0.09924587  0.35051231  0.54616413     0.18060
N1124       N  0.13993832  0.40522356  0.58012159    -0.88650
H1125       H  0.07617480  0.27967051  0.68546240     0.35440
H1126       H  0.09306378  0.25514545  0.64664889     0.40530
H1127       H  0.15564317  0.42260936  0.59957405     0.40150
H1128       H  0.11959919  0.42236154  0.56571018     0.35040
C1129       C  0.06659584  0.55008609  0.11650360    -0.26690
C1130       C  0.10294275  0.56505410  0.10660587    -0.14760
C1131       C  0.11005860  0.60482228  0.11107996     0.35870
C1132       C  0.07933544  0.62906792  0.12258922    -0.26140
C1133       C  0.04245989  0.61413246  0.13046214    -0.15370
C1134       C  0.03653723  0.57401864  0.12903376     0.36950
N1135       N  0.00095951  0.55658136  0.14152553    -0.89630
H1136       H  0.06144602  0.51950310  0.11426070     0.18070
H1137       H  0.08391785  0.65971859  0.12490713     0.18060
N1138       N  0.14766089  0.62067630  0.10219359    -0.88650
H1139       H  0.97814404  0.56461113  0.12319814     0.35440
H1140       H  0.99507636  0.56587103  0.17017896     0.40530
H1141       H  0.16690143  0.61203404  0.12411183     0.40150
H1142       H  0.14677720  0.65059102  0.10397167     0.35040
C1143       C  0.06390700  0.37846099  0.10739461    -0.26690
C1144       C  0.10087794  0.36425106  0.09746293    -0.14760
C1145       C  0.10977286  0.32512068  0.10415153     0.35870
C1146       C  0.08125592  0.30118823  0.12035360    -0.26140
C1147       C  0.04410599  0.31539193  0.12932193    -0.15370
C1148       C  0.03557378  0.35463388  0.12355981     0.36950
N1149       N  0.99778290  0.36995831  0.13368654    -0.89630
H1150       H  0.05712388  0.40838709  0.10273052     0.18070
H1151       H  0.08741988  0.27104358  0.12441827     0.18060
N1152       N  0.14714852  0.30943344  0.09324804    -0.88650
H1153       H  0.99601492  0.39907571  0.12718701     0.35440
H1154       H  0.99446514  0.36782465  0.16402686     0.40530
H1155       H  0.14942007  0.31057298  0.06272554     0.40150
H1156       H  0.14891520  0.28050755  0.10053785     0.35040
C1157       C  0.24863225  0.46541120  0.22547383    -0.26690
C1158       C  0.21874020  0.45659958  0.19879760    -0.14760
C1159       C  0.18303428  0.44210495  0.21267449     0.35870
C1160       C  0.17765687  0.43697887  0.25301747    -0.26140
C1161       C  0.20714902  0.44623657  0.27984414    -0.15370
C1162       C  0.24319240  0.46014842  0.26606688     0.36950
N1163       N  0.27394807  0.46875141  0.29333594    -0.89630
H1164       H  0.27624981  0.47588354  0.21457833     0.18070
H1165       H  0.14987425  0.42675324  0.26377207     0.18060
N1166       N  0.15216466  0.43310351  0.18560425    -0.88650
H1167       H  0.29858730  0.47858578  0.27852128     0.35440
H1168       H  0.28205793  0.44311215  0.30656469     0.40530
H1169       H  0.14332786  0.45866161  0.17266539     0.40150
H1170       H  0.12786032  0.42252258  0.20042395     0.35040
C1171       C  0.37919940  0.34594863  0.85419506    -0.26690
C1172       C  0.41445325  0.33810318  0.87341402    -0.14760
C1173       C  0.41830511  0.34832147  0.91351607     0.35870
C1174       C  0.38796182  0.36795830  0.93279205    -0.26140
C1175       C  0.35312916  0.37705606  0.91349402    -0.15370
C1176       C  0.34844143  0.36545612  0.87379676     0.36950
N1177       N  0.31308332  0.37440543  0.85322499    -0.89630
H1178       H  0.37619858  0.33800863  0.82353474     0.18070
H1179       H  0.39146188  0.37591439  0.96340520     0.18060
N1180       N  0.45325638  0.33873284  0.93457908    -0.88650
H1181       H  0.31424662  0.36370132  0.82445932     0.35440
H1182       H  0.31120934  0.40421706  0.85132109     0.40530
H1183       H  0.45509528  0.30886893  0.93560124     0.40150
H1184       H  0.45177866  0.34873891  0.96357960     0.35040
C1185       C  0.28111383  0.28264425  0.97473926    -0.26690
C1186       C  0.25653480  0.29200544  0.00645063    -0.14760
C1187       C  0.25635041  0.26836175  0.03964587     0.35870
C1188       C  0.28146075  0.23679490  0.04108433    -0.26140
C1189       C  0.30699644  0.22841068  0.01006223    -0.15370
C1190       C  0.30682999  0.25148865  0.97642671     0.36950
N1191       N  0.33355684  0.24388073  0.94465439    -0.89630
H1192       H  0.28230779  0.30117992  0.94958721     0.18070
H1193       H  0.28084913  0.21862595  0.06654651     0.18060
N1194       N  0.23104974  0.27648310  0.07218406    -0.88650
H1195       H  0.32963492  0.26357113  0.92220269     0.35440
H1196       H  0.36182047  0.24797538  0.95531181     0.40530
H1197       H  0.24829610  0.28052200  0.09714066     0.40150
H1198       H  0.21356877  0.25246037  0.07658475     0.35040
C1199       C  0.07752813  0.59969478  0.87083312    -0.26690
C1200       C  0.04442701  0.57763760  0.86314118    -0.14760
C1201       C  0.04038333  0.54142985  0.88065518     0.35870
C1202       C  0.06708462  0.53025292  0.90890226    -0.26140
C1203       C  0.09951699  0.55301129  0.91817102    -0.15370
C1204       C  0.10560615  0.58758171  0.89774324     0.36950
N1205       N  0.13912015  0.61115956  0.90544552    -0.89630
H1206       H  0.08027292  0.62758324  0.85760076     0.18070
H1207       H  0.06312620  0.50268211  0.92252199     0.18060
N1208       N  0.00892322  0.51586146  0.87116321    -0.88650
H1209       H  0.13596144  0.63784975  0.89230984     0.35440
H1210       H  0.16295813  0.59813766  0.89141489     0.40530
H1211       H  0.99250624  0.52574938  0.84761084     0.40150
H1212       H  0.99056486  0.51495509  0.89561017     0.35040
C1213       C  0.01551801  0.37327525  0.90674444    -0.26690
C1214       C  0.01916268  0.36499090  0.86614494    -0.14760
C1215       C  0.05727218  0.36997075  0.84994517     0.35870
C1216       C  0.08927176  0.38177905  0.87387510    -0.26140
C1217       C  0.08480511  0.39145265  0.91391316    -0.15370
C1218       C  0.04668314  0.38775373  0.92996806     0.36950
N1219       N  0.03927789  0.39851619  0.97016957    -0.89630
H1220       H  0.98791869  0.36888676  0.92119250     0.18070
H1221       H  0.11764750  0.38512921  0.86033915     0.18060
N1222       N  0.06387856  0.36479606  0.80877730    -0.88650
H1223       H  0.01129851  0.39022584  0.97871908     0.35440
H1224       H  0.03915228  0.42844849  0.97175990     0.40530
H1225       H  0.08548046  0.34383698  0.80491208     0.40150
H1226       H  0.07452140  0.39048400  0.79768675     0.35040
C1227       C  0.21887211  0.44666542  0.80412491    -0.26690
C1228       C  0.19911054  0.46787835  0.83339040    -0.14760
C1229       C  0.16058553  0.48000520  0.82677613     0.35870
C1230       C  0.14264340  0.47133492  0.79109172    -0.26140
C1231       C  0.16238779  0.45110618  0.76126048    -0.15370
C1232       C  0.20107464  0.43866606  0.76769827     0.36950
N1233       N  0.22211061  0.41829180  0.73741393    -0.89630
H1234       H  0.24797673  0.43597729  0.80996138     0.18070
H1235       H  0.11263059  0.48011819  0.78663765     0.18060
N1236       N  0.13893087  0.49933406  0.85719277    -0.88650
H1237       H  0.25007663  0.41103948  0.74704690     0.35440
H1238       H  0.22574802  0.43692424  0.71401246     0.40530
H1239       H  0.13420616  0.47967272  0.87950272     0.40150
H1240       H  0.11143614  0.50722298  0.84685438     0.35040
C1241       C  0.40857638  0.59904227  0.91282662    -0.26690
C1242       C  0.40643818  0.59801424  0.87169550    -0.14760
C1243       C  0.37542277  0.57859608  0.85309262     0.35870
C1244       C  0.34850029  0.55894232  0.87630736    -0.26140
C1245       C  0.35267697  0.55754976  0.91730084    -0.15370
C1246       C  0.38278545  0.57814388  0.93581900     0.36950
N1247       N  0.38668878  0.57837746  0.97780183    -0.89630
H1248       H  0.43189688  0.61488927  0.92696491     0.18070
H1249       H  0.32476036  0.54370971  0.86216327     0.18060
N1250       N  0.37097560  0.57726730  0.81122051    -0.88650
H1251       H  0.40894744  0.59695681  0.98667848     0.35440
H1252       H  0.39568192  0.55101392  0.98599225     0.40530
H1253       H  0.39273915  0.59290780  0.79734333     0.40150
H1254       H  0.34452737  0.59069116  0.80461288     0.35040
C1255       C  0.25071081  0.71308157  0.99940094    -0.26690
C1256       C  0.27422562  0.72631826  0.03085267    -0.14760
C1257       C  0.28092028  0.70003606  0.06184466     0.35870
C1258       C  0.26660396  0.66237621  0.05923473    -0.26140
C1259       C  0.24624993  0.64850037  0.02627142    -0.15370
C1260       C  0.23711724  0.67483014  0.99656065     0.36950
N1261       N  0.21420142  0.66275398  0.96341252    -0.89630
H1262       H  0.24337832  0.73257755  0.97615676     0.18070
H1263       H  0.27280290  0.64326130  0.08310917     0.18060
N1264       N  0.30364166  0.70922350  0.09578101    -0.88650
H1265       H  0.21029774  0.68529865  0.94397961     0.35440
H1266       H  0.18648783  0.65562095  0.97377919     0.40530
H1267       H  0.33014261  0.72117302  0.08730878     0.40150
H1268       H  0.28779969  0.72758106  0.11427479     0.35040
C1269       C  0.86749806  0.84314587  0.33964391    -0.26690
C1270       C  0.86094622  0.87913890  0.35737281    -0.14760
C1271       C  0.87010579  0.88431751  0.39762239     0.35870
C1272       C  0.88937715  0.85525784  0.41754472    -0.26140
C1273       C  0.89700950  0.81951948  0.39997575    -0.15370
C1274       C  0.88468510  0.81290731  0.36073236     0.36950
N1275       N  0.89130950  0.77640690  0.34173291    -0.89630
H1276       H  0.86015196  0.83896528  0.30900997     0.18070
H1277       H  0.89795618  0.86058503  0.44751834     0.18060
N1278       N  0.85957923  0.91831240  0.41960724    -0.88650
H1279       H  0.88359308  0.77750524  0.31214103     0.35440
H1280       H  0.87226871  0.75679941  0.35435874     0.40530
H1281       H  0.84006544  0.93562644  0.40442989     0.40150
H1282       H  0.88499816  0.93394900  0.42501331     0.35040
C1283       C  0.84797822  0.03105558  0.37330663    -0.26690
C1284       C  0.87091556  0.01540474  0.34281584    -0.14760
C1285       C  0.90882359  0.02943727  0.33640103     0.35870
C1286       C  0.92328345  0.05781311  0.36171689    -0.26140
C1287       C  0.90158492  0.07123843  0.39396285    -0.15370
C1288       C  0.86277268  0.05894614  0.39895620     0.36950
N1289       N  0.83799189  0.07315824  0.43003862    -0.89630
H1290       H  0.81887465  0.02011883  0.37841136     0.18070
H1291       H  0.95149818  0.06983947  0.35598303     0.18060
N1292       N  0.93310486  0.01587989  0.30465099    -0.88650
H1293       H  0.81449347  0.08735117  0.41713714     0.35440
H1294       H  0.85212436  0.09331345  0.44781476     0.40530
H1295       H  0.91846271  0.99626153  0.28664408     0.40150
H1296       H  0.95680281  0.00140162  0.31682582     0.35040
C1297       C  0.10200105  0.81114061  0.37320217    -0.26690
C1298       C  0.08751062  0.81867523  0.41128598    -0.14760
C1299       C  0.09936900  0.85234542  0.43109547     0.35870
C1300       C  0.12406156  0.87797955  0.41228915    -0.26140
C1301       C  0.13509974  0.87260592  0.37293828    -0.15370
C1302       C  0.12507115  0.83794247  0.35344252     0.36950
N1303       N  0.13576884  0.82963969  0.31344516    -0.89630
H1304       H  0.09390749  0.78492859  0.35791432     0.18070
H1305       H  0.13231903  0.90418579  0.42755422     0.18060
N1306       N  0.08584645  0.86097815  0.47003589    -0.88650
H1307       H  0.15438438  0.80584257  0.31346837     0.35440
H1308       H  0.15128973  0.85200189  0.30103212     0.40530
H1309       H  0.05669276  0.86947276  0.46749436     0.40150
H1310       H  0.10053260  0.88467877  0.48181905     0.35040
C1311       C  0.11748848  0.05851723  0.41611590    -0.26690
C1312       C  0.07976809  0.06716059  0.40348906    -0.14760
C1313       C  0.06438468  0.04833212  0.36996947     0.35870
C1314       C  0.08644447  0.01983698  0.35103663    -0.26140
C1315       C  0.12380590  0.01051998  0.36426845    -0.15370
C1316       C  0.13964663  0.03040995  0.39693180     0.36950
N1317       N  0.17750447  0.02174142  0.41214133    -0.89630
H1318       H  0.12956718  0.07333323  0.44146157     0.18070
H1319       H  0.07409564  0.00437579  0.32623749     0.18060
N1320       N  0.02679572  0.05737778  0.35426461    -0.88650
H1321       H  0.19815275  0.02801442  0.39071962     0.35440
H1322       H  0.17891277  0.99254812  0.41838549     0.40530
H1323       H  0.01402410  0.08037197  0.36940956     0.40150
H1324       H  0.00912931  0.03343527  0.35834328     0.35040
C1325       C  0.57265509  0.38026809  0.10315228    -0.26690
C1326       C  0.61095684  0.36676420  0.10009189    -0.14760
C1327       C  0.61892423  0.32773499  0.10705790     0.35870
C1328       C  0.58788460  0.30205776  0.11060315    -0.26140
C1329       C  0.54913357  0.31521244  0.11020530    -0.15370
C1330       C  0.54193075  0.35519400  0.10948990     0.36950
N1331       N  0.50359844  0.37069838  0.11588285    -0.89630
H1332       H  0.56638534  0.41052377  0.09994898     0.18070
H1333       H  0.59428762  0.27178776  0.11300325     0.18060
N1334       N  0.65820511  0.31383121  0.10963572    -0.88650
H1335       H  0.49592849  0.38681256  0.09147397     0.35440
H1336       H  0.50459481  0.38916681  0.14026453     0.40530
H1337       H  0.66180482  0.29145745  0.08926820     0.40150
H1338       H  0.66191395  0.30230855  0.13748112     0.35040
C1339       C  0.36935180  0.33509180  0.05422025    -0.26690
C1340       C  0.35427706  0.35992154  0.08326396    -0.14760
C1341       C  0.36608453  0.35602364  0.12267616     0.35870
C1342       C  0.39383782  0.32808105  0.13171225    -0.26140
C1343       C  0.41037609  0.30455217  0.10235371    -0.15370
C1344       C  0.39737744  0.30746982  0.06347547     0.36950
N1345       N  0.41306301  0.28280884  0.03338796    -0.89630
H1346       H  0.35956139  0.33741863  0.02413774     0.18070
H1347       H  0.40437091  0.32637184  0.16157399     0.18060
N1348       N  0.35188089  0.38057118  0.15387436    -0.88650
H1349       H  0.38995794  0.26760319  0.02077317     0.35440
H1350       H  0.42529426  0.29993024  0.01176310     0.40530
H1351       H  0.33220784  0.40103169  0.14380913     0.40150
H1352       H  0.37569040  0.39579435  0.16508606     0.35040
C1353       C  0.57313538  0.57565657  0.06798660    -0.26690
C1354       C  0.60331660  0.56466232  0.09318699    -0.14760
C1355       C  0.60637692  0.58208770  0.13078405     0.35870
C1356       C  0.57811989  0.60885373  0.14286909    -0.26140
C1357       C  0.54684200  0.61800277  0.11844710    -0.15370
C1358       C  0.54501006  0.60245668  0.08016479     0.36950
N1359       N  0.51373934  0.61308099  0.05446327    -0.89630
H1360       H  0.57159936  0.56346241  0.03862592     0.18070
H1361       H  0.57895370  0.62055839  0.17246725     0.18060
N1362       N  0.63720975  0.57154756  0.15707978    -0.88650
H1363       H  0.51646746  0.59871010  0.02754741     0.35440
H1364       H  0.51654834  0.64229190  0.04886561     0.40530
H1365       H  0.63321166  0.54281022  0.16419047     0.40150
H1366       H  0.63528063  0.58726955  0.18335093     0.35040
C1367       C  0.41038360  0.56592526  0.15498008    -0.26690
C1368       C  0.40889167  0.60588116  0.14981417    -0.14760
C1369       C  0.37847822  0.62142931  0.12723859     0.35870
C1370       C  0.35243351  0.59689572  0.10805634    -0.26140
C1371       C  0.35604850  0.55690599  0.11035444    -0.15370
C1372       C  0.38459317  0.54117281  0.13530831     0.36950
N1373       N  0.38835084  0.50068237  0.14151742    -0.89630
H1374       H  0.43372597  0.55368228  0.17220968     0.18070
H1375       H  0.33015242  0.60913063  0.08961315     0.18060
N1376       N  0.37487230  0.66177774  0.12113411    -0.88650
H1377       H  0.41530230  0.49191426  0.13005242     0.35440
H1378       H  0.36697138  0.48510037  0.12660626     0.40530
H1379       H  0.40058034  0.67177629  0.10843402     0.40150
H1380       H  0.37090017  0.67543656  0.14831389     0.35040
C1381       C  0.59060661  0.10613563  0.14177448    -0.26690
C1382       C  0.59729599  0.06665532  0.14319661    -0.14760
C1383       C  0.62669149  0.04953255  0.12016788     0.35870
C1384       C  0.64675599  0.07199460  0.09317812    -0.26140
C1385       C  0.63714803  0.11081905  0.08863283    -0.15370
C1386       C  0.60962173  0.12851358  0.11426137     0.36950
N1387       N  0.59818924  0.16812746  0.11170718    -0.89630
H1388       H  0.56874304  0.11930467  0.16071052     0.18070
H1389       H  0.66743835  0.05851979  0.07317886     0.18060
N1390       N  0.63503899  0.00933919  0.12346341    -0.88650
H1391       H  0.56901501  0.16899662  0.10285514     0.35440
H1392       H  0.61417729  0.18285824  0.09087856     0.40530
H1393       H  0.64572747  0.00482400  0.15170435     0.40150
H1394       H  0.65728021  0.00114640  0.10403689     0.35040
C1395       C  0.38070139  0.08774886  0.13335274    -0.26690
C1396       C  0.42084289  0.08061282  0.13490309    -0.14760
C1397       C  0.44655684  0.10318678  0.11272399     0.35870
C1398       C  0.43111344  0.13031539  0.08688265    -0.26140
C1399       C  0.39063516  0.13554073  0.08337517    -0.15370
C1400       C  0.36517804  0.11460969  0.10775669     0.36950
N1401       N  0.32338139  0.11800115  0.10582870    -0.89630
H1402       H  0.36099102  0.07129114  0.15132282     0.18070
H1403       H  0.45050639  0.14580781  0.06770993     0.18060
N1404       N  0.48805182  0.09827610  0.11634217    -0.88650
H1405       H  0.31254780  0.09219343  0.09444257     0.35440
H1406       H  0.31428809  0.13953950  0.08712826     0.40530
H1407       H  0.49567338  0.10612054  0.14500862     0.40150
H1408       H  0.50279763  0.11700234  0.09789967     0.35040
C1409       C  0.45295149  0.18749207  0.18828296    -0.26690
C1410       C  0.48396995  0.21346647  0.18765757    -0.14760
C1411       C  0.51448044  0.20898707  0.21536010     0.35870
C1412       C  0.51571378  0.17619732  0.23874215    -0.26140
C1413       C  0.48507302  0.14981349  0.23809890    -0.15370
C1414       C  0.45174239  0.15767714  0.21487210     0.36950
N1415       N  0.41715853  0.13457148  0.21689128    -0.89630
H1416       H  0.42934443  0.18972567  0.16745534     0.18070
H1417       H  0.54071391  0.17137965  0.25744420     0.18060
N1418       N  0.54381510  0.23765325  0.22067745    -0.88650
H1419       H  0.39631771  0.14330560  0.19652894     0.35440
H1420       H  0.40459032  0.13954029  0.24445317     0.40530
H1421       H  0.54276251  0.24726504  0.24982816     0.40150
H1422       H  0.57105925  0.22482443  0.21585718     0.35040
C1423       C  0.34689397  0.87466772  0.43400469    -0.26690
C1424       C  0.35462447  0.83528276  0.43699562    -0.14760
C1425       C  0.38438432  0.81848852  0.41383101     0.35870
C1426       C  0.40555397  0.84139986  0.38776790    -0.26140
C1427       C  0.39859865  0.88095537  0.38572725    -0.15370
C1428       C  0.36857026  0.89770052  0.40850979     0.36950
N1429       N  0.36031716  0.93794484  0.40571623    -0.89630
H1430       H  0.32478427  0.88766446  0.45272390     0.18070
H1431       H  0.42841288  0.82862606  0.36982372     0.18060
N1432       N  0.39358293  0.77851071  0.41759274    -0.88650
H1433       H  0.33750802  0.94582698  0.42459829     0.35440
H1434       H  0.35051350  0.94302467  0.37726541     0.40530
H1435       H  0.40450626  0.77447989  0.44581954     0.40150
H1436       H  0.41593526  0.77056534  0.39819094     0.35040
C1437       C  0.39481842  0.11276785  0.37983898    -0.26690
C1438       C  0.40680489  0.07520603  0.38907412    -0.14760
C1439       C  0.40114122  0.06186221  0.42738880     0.35870
C1440       C  0.38456578  0.08617904  0.45549913    -0.26140
C1441       C  0.37347694  0.12388349  0.44698052    -0.15370
C1442       C  0.37823119  0.13737742  0.40861212     0.36950
N1443       N  0.36662713  0.17573974  0.39918584    -0.89630
H1444       H  0.39906858  0.12316350  0.35039237     0.18070
H1445       H  0.37969719  0.07515666  0.48448775     0.18060
N1446       N  0.41147138  0.02333202  0.43764941    -0.88650
H1447       H  0.37210043  0.18111064  0.36962778     0.35440
H1448       H  0.38417302  0.19454045  0.41542209     0.40530
H1449       H  0.39319405  0.00497262  0.42179362     0.40150
H1450       H  0.40600430  0.01837776  0.46729527     0.35040
C1451       C  0.30320372  0.98391188  0.31067105    -0.26690
C1452       C  0.31372160  0.96748246  0.27450520    -0.14760
C1453       C  0.28792480  0.94161136  0.25538601     0.35870
C1454       C  0.25202916  0.93333012  0.27298872    -0.26140
C1455       C  0.24183160  0.94971930  0.30929376    -0.15370
C1456       C  0.26808373  0.97442740  0.32880097     0.36950
N1457       N  0.25923590  0.98906415  0.36741190    -0.89630
H1458       H  0.32374060  0.00218081  0.32617364     0.18070
H1459       H  0.23170587  0.91451299  0.25795270     0.18060
N1460       N  0.29710333  0.92326655  0.21846333    -0.88650
H1461       H  0.28163871  0.00673472  0.37776511     0.35440
H1462       H  0.25796439  0.96572698  0.38619938     0.40530
H1463       H  0.32371960  0.93266747  0.20754046     0.40150
H1464       H  0.27605833  0.93181379  0.19822137     0.35040
C1465       C  0.61234028  0.82693364  0.10170842    -0.26690
C1466       C  0.64840978  0.84097647  0.08897169    -0.14760
C1467       C  0.66101038  0.87744333  0.10265387     0.35870
C1468       C  0.63622608  0.89945662  0.12698382    -0.26140
C1469       C  0.59911479  0.88611306  0.13736776    -0.15370
C1470       C  0.58733694  0.84909497  0.12518037     0.36950
N1471       N  0.55009382  0.83314121  0.13546707    -0.89630
H1472       H  0.60197857  0.79951766  0.09068257     0.18070
H1473       H  0.64587319  0.92724497  0.13761936     0.18060
N1474       N  0.69800921  0.89326438  0.09154268    -0.88650
H1475       H  0.53440813  0.82889643  0.10952169     0.35440
H1476       H  0.53343106  0.85178038  0.15290287     0.40530
H1477       H  0.71411294  0.87362796  0.07465509     0.40150
H1478       H  0.71406016  0.89787705  0.11719833     0.35040
C1479       C  0.40721658  0.85078345  0.12384378    -0.26690
C1480       C  0.39942649  0.88966965  0.13057154    -0.14760
C1481       C  0.36457569  0.90570328  0.11634979     0.35870
C1482       C  0.33800848  0.88214625  0.09574395    -0.26140
C1483       C  0.34584292  0.84296396  0.08861025    -0.15370
C1484       C  0.38143718  0.82734721  0.10270960     0.36950
N1485       N  0.39345926  0.78842086  0.09499390    -0.89630
H1486       H  0.43409104  0.83848160  0.13476061     0.18070
H1487       H  0.31203195  0.89479736  0.08322909     0.18060
N1488       N  0.35704254  0.94601633  0.12157474    -0.88650
H1489       H  0.41883695  0.78921269  0.07798765     0.35440
H1490       H  0.37309720  0.77321073  0.07853642     0.40530
H1491       H  0.35505316  0.95203462  0.15156809     0.40150
H1492       H  0.33010974  0.95332488  0.10940203     0.35040
C1493       C  0.45208969  0.74517423  0.20248375    -0.26690
C1494       C  0.48483638  0.72111736  0.20175750    -0.14760
C1495       C  0.51957479  0.73400722  0.22026791     0.35870
C1496       C  0.52151799  0.77159363  0.23579051    -0.26140
C1497       C  0.48896147  0.79602812  0.23543884    -0.15370
C1498       C  0.45325140  0.78181511  0.21968404     0.36950
N1499       N  0.41817016  0.80462339  0.22017212    -0.89630
H1500       H  0.42545683  0.73599035  0.18823465     0.18070
H1501       H  0.54859496  0.78173350  0.24846905     0.18060
N1502       N  0.55266333  0.70887662  0.22372460    -0.88650
H1503       H  0.39433497  0.78896417  0.20968366     0.35440
H1504       H  0.42211975  0.82691664  0.20061671     0.40530
H1505       H  0.54435477  0.68613855  0.24143363     0.40150
H1506       H  0.57571039  0.72272392  0.23801792     0.35040
C1507       C  0.62302715  0.86962953  0.38558555    -0.26690
C1508       C  0.58406587  0.88087995  0.39237193    -0.14760
C1509       C  0.56570586  0.86999681  0.42737574     0.35870
C1510       C  0.58686446  0.84888276  0.45468740    -0.26140
C1511       C  0.62720942  0.84143375  0.45015212    -0.15370
C1512       C  0.64522603  0.85169429  0.41471757     0.36950
N1513       N  0.68604666  0.84531890  0.40846719    -0.89630
H1514       H  0.63679216  0.87578165  0.35788679     0.18070
H1515       H  0.57169215  0.83918590  0.48053368     0.18060
N1516       N  0.52537104  0.87923476  0.43471706    -0.88650
H1517       H  0.69916951  0.87174278  0.40330148     0.35440
H1518       H  0.68937294  0.82824574  0.38323002     0.40530
H1519       H  0.52374550  0.90855149  0.44120143     0.40150
H1520       H  0.51536127  0.86555031  0.45982751     0.35040
C1521       C  0.61900802  0.07867766  0.45074627    -0.26690
C1522       C  0.60919931  0.11751522  0.45489104    -0.14760
C1523       C  0.58217720  0.13439413  0.42916636     0.35870
C1524       C  0.56546115  0.11150856  0.39963690    -0.26140
C1525       C  0.57444836  0.07230569  0.39652992    -0.15370
C1526       C  0.60162145  0.05579884  0.42196996     0.36950
N1527       N  0.61168919  0.01596777  0.41809325    -0.89630
H1528       H  0.63964879  0.06599670  0.47086166     0.18070
H1529       H  0.54470830  0.12410561  0.37961051     0.18060
N1530       N  0.57085753  0.17401985  0.43237239    -0.88650
H1531       H  0.63189463  0.00818813  0.43949213     0.35440
H1532       H  0.62581406  0.01268759  0.39117233     0.40530
H1533       H  0.58570420  0.18812994  0.45499900     0.40150
H1534       H  0.54122375  0.17493802  0.43963237     0.35040
C1535       C  0.70476303  0.98126365  0.24958645    -0.26690
C1536       C  0.67735667  0.97049571  0.27781575    -0.14760
C1537       C  0.68983719  0.95202109  0.31198294     0.35870
C1538       C  0.72928543  0.94327353  0.31690625    -0.26140
C1539       C  0.75690226  0.95330828  0.28871855    -0.15370
C1540       C  0.74472331  0.97298643  0.25484607     0.36950
N1541       N  0.77292156  0.98435040  0.22611281    -0.89630
H1542       H  0.69491043  0.99520348  0.22321129     0.18070
H1543       H  0.73873818  0.92964431  0.34361071     0.18060
N1544       N  0.66214215  0.94245348  0.34181365    -0.88650
H1545       H  0.75924695  0.99860325  0.20314268     0.35440
H1546       H  0.78530718  0.95941438  0.21405858     0.40530
H1547       H  0.64901477  0.96787332  0.35139063     0.40150
H1548       H  0.67641166  0.93129276  0.36618155     0.35040
loop_ 
_geom_bond_atom_site_label_1 
_geom_bond_atom_site_label_2 
_geom_bond_distance 
_geom_bond_site_symmetry_2 
_ccdc_geom_bond_type 
O1           C12   1.286       .  A
O1          Eu37   2.428       .  S
O2           C13   1.280       .  A
O2          Eu36   2.405       .  S
O3           C14   1.281       .  A
O3           Eu9   2.403       .  S
O4           C15   1.285       .  A
O4           Eu9   2.428       .  S
O5           C15   1.292       .  A
O5          Eu39   2.459   1_545  S
O6           C14   1.295       .  A
O6          Eu38   2.480   1_545  S
O7           C13   1.297       .  A
O7           Eu9   2.497       .  S
O8           C12   1.294   1_545  A
O8           Eu9   2.485       .  S
Eu9          O19   2.355   1_545  S
Eu9          O11   2.355   1_545  S
Eu9          O10   2.338       .  S
Eu9          O17   2.340       .  S
O10         Eu39   2.346   1_545  S
O10         Eu36   2.349       .  S
O11         Eu37   2.353       .  S
O11         Eu38   2.354       .  S
C12        C1536   1.469       .  S
C13        C1413   1.482       .  S
C14        C1382   1.455       .  S
C15        C1525   1.458       .  S
H16          O17   0.965       .  S
O17         Eu38   2.340   1_545  S
O17         Eu36   2.353       .  S
H18          O19   0.968       .  S
O19         Eu37   2.367       .  S
O19         Eu39   2.348       .  S
O20          C43   1.293   1_545  A
O20         Eu36   2.471       .  S
O21          C44   1.298       .  A
O21         Eu37   2.500       .  S
O22          C45   1.294       .  A
O22         Eu38   2.476   1_545  S
O23          C46   1.293       .  A
O23         Eu39   2.464   1_545  S
O24          C47   1.295       .  A
O24         Eu39   2.473       .  S
O25          C48   1.296       .  A
O25         Eu38   2.486       .  S
O26          C49   1.285       .  A
O26         Eu40   2.426       .  S
O27          C50   1.288       .  A
O27         Eu40   2.449       .  S
O28          C49   1.298       .  A
O28         Eu38   2.498       .  S
O29          C50   1.295       .  A
O29         Eu39   2.478       .  S
O30          C45   1.289       .  A
O30         Eu36   2.444       .  S
O31          C48   1.284       .  A
O31         Eu37   2.421       .  S
O32          C47   1.288       .  A
O32         Eu37   2.439       .  S
O33          C46   1.286       .  A
O33         Eu36   2.431       .  S
O34          C43   1.281       .  A
O34         Eu40   2.403       .  S
O35          C44   1.279       .  A
O35         Eu40   2.401       .  S
Eu36         O54   2.335   1_545  S
Eu36         O42   2.337   1_545  S
Eu37         O41   2.339       .  S
Eu37         O52   2.343       .  S
Eu38         O52   2.350       .  S
Eu38         O42   2.372       .  S
Eu39         O41   2.357       .  S
Eu39         O54   2.346       .  S
Eu40         O41   2.337       .  S
Eu40         O52   2.347       .  S
Eu40         O54   2.336       .  S
Eu40         O42   2.349       .  S
C43        C1452   1.462       .  S
C44        C1497   1.493       .  S
C45        C1396   1.473       .  S
C46        C1438   1.480       .  S
C47        C1508   1.481       .  S
C48        C1469   1.465       .  S
C49        C1480   1.472       .  S
C50        C1427   1.475       .  S
H51          O52   0.966       .  S
H53          O54   0.967       .  S
C55        C1494   1.497       .  S
C55          C56   1.421       .  A
C55          C60   1.409       .  A
C56          C57   1.408       .  A
C56          H61   1.082       .  S
C57        C1368   1.481       .  S
C57          C58   1.389       .  A
C58          C59   1.388       .  A
C58          H62   1.085       .  S
C59        C1357   1.467       .  S
C59          C60   1.396       .  A
C60          H63   1.082       .  S
C64        C1410   1.495       .  S
C64          C65   1.414       .  A
C64          C69   1.406       .  A
C65          C66   1.398       .  A
C65          H70   1.082       .  S
C66        C1343   1.471       .  S
C66          C67   1.392       .  A
C67          C68   1.397       .  A
C67          H71   1.084       .  S
C68        C1329   1.481       .  S
C68          C69   1.400       .  A
C69          H72   1.076       .  S
C73        C1455   1.472       .  S
C73          C74   1.400       .  A
C73          C78   1.411       .  A
C74          C75   1.389       .  A
C74          H79   1.084   1_565  S
C75        C1315   1.467   1_565  S
C75          C76   1.390       .  A
C76          C77   1.402       .  A
C76          H80   1.085       .  S
C77        C1301   1.484       .  S
C77          C78   1.410       .  A
C78          H81   1.083       .  S
C82        C1539   1.480       .  S
C82          C83   1.399       .  A
C82          C87   1.415       .  A
C83          C84   1.394       .  A
C83          H88   1.085   1_565  S
C84        C1284   1.467   1_565  S
C84          C85   1.395       .  A
C85          C86   1.401       .  A
C85          H89   1.085       .  S
C86        C1270   1.488       .  S
C86          C87   1.408       .  A
C87          H90   1.084       .  S
O91         C102   1.300       .  A
O91        Eu127   2.508       .  S
O92         C103   1.293       .  A
O92        Eu126   2.455       .  S
O93         C104   1.294       .  A
O93         Eu99   2.476       .  S
O94         C105   1.294       .  A
O94         Eu99   2.486       .  S
O95         C105   1.287       .  A
O95        Eu129   2.439       .  S
O96         C104   1.298   1_556  A
O96        Eu128   2.502       .  S
O97         C103   1.283       .  A
O97         Eu99   2.413       .  S
O98         C102   1.283       .  A
O98         Eu99   2.412       .  S
Eu99        O109   2.352       .  S
Eu99        O101   2.351       .  S
Eu99        O100   2.352       .  S
Eu99        O107   2.360       .  S
O100       Eu129   2.340       .  S
O100       Eu126   2.354       .  S
O101       Eu127   2.337       .  S
O101       Eu128   2.344   1_554  S
C102       C1371   1.474       .  S
C103       C1130   1.462       .  S
C104       C1259   1.511       .  S
C105       C1158   1.476       .  S
H106        O107   0.967       .  S
O107       Eu128   2.352   1_554  S
O107       Eu126   2.371       .  S
H108        O109   0.970       .  S
O109       Eu127   2.366       .  S
O109       Eu129   2.351       .  S
O110        C133   1.293       .  A
O110       Eu126   2.472   1_556  S
O111        C134   1.295       .  A
O111       Eu127   2.466   1_556  S
O112        C135   1.282       .  A
O112       Eu128   2.405       .  S
O113        C136   1.285       .  A
O113       Eu129   2.424       .  S
O114        C137   1.287       .  A
O114       Eu129   2.436       .  S
O115        C138   1.285       .  A
O115       Eu128   2.424       .  S
O116        C139   1.281       .  A
O116       Eu130   2.403       .  S
O117        C140   1.291   1_556  A
O117       Eu130   2.450       .  S
O118        C139   1.297       .  A
O118       Eu128   2.495       .  S
O119        C140   1.284       .  A
O119       Eu129   2.417       .  S
O120        C135   1.293       .  A
O120       Eu126   2.460   1_556  S
O121        C138   1.293       .  A
O121       Eu127   2.471   1_556  S
O122        C137   1.290       .  A
O122       Eu127   2.454       .  S
O123        C136   1.296       .  A
O123       Eu126   2.482       .  S
O124        C133   1.306       .  A
O124       Eu130   2.551       .  S
O125        C134   1.294       .  A
O125       Eu130   2.473       .  S
Eu126       O144   2.360       .  S
Eu126       O132   2.336   1_554  S
Eu127       O131   2.343       .  S
Eu127       O142   2.371   1_554  S
Eu128       O142   2.347       .  S
Eu128       O132   2.346       .  S
Eu129       O131   2.327       .  S
Eu129       O144   2.364       .  S
Eu130       O131   2.341   1_556  S
Eu130       O142   2.381       .  S
Eu130       O144   2.346   1_556  S
Eu130       O132   2.332       .  S
C133       C1217   1.532       .  S
C134       C1175   1.489       .  S
C135       C1203   1.473       .  S
C136       C1144   1.480       .  S
C137       C1340   1.461       .  S
C138       C1245   1.468       .  S
C139       C1228   1.468       .  S
C140       C1186   1.473       .  S
H141        O142   0.969       .  S
H143        O144   0.965       .  S
C145       C1231   1.482       .  S
C145        C146   1.413       .  A
C145        C150   1.404       .  A
C146        C147   1.409       .  A
C146        H151   1.083       .  S
C147       C1116   1.479       .  S
C147        C148   1.395       .  A
C148        C149   1.389       .  A
C148        H152   1.082       .  S
C149       C1105   1.471       .  S
C149        C150   1.392       .  A
C150        H153   1.084       .  S
C154       C1161   1.481       .  S
C154        C155   1.411       .  A
C154        C159   1.406       .  A
C155        C156   1.409       .  A
C155        H160   1.083       .  S
C156       C1088   1.497       .  S
C156        C157   1.405       .  A
C157        C158   1.401       .  A
C157        H161   1.085       .  S
C158       C1077   1.487       .  S
C158        C159   1.401       .  A
C159        H162   1.084       .  S
C163       C1189   1.472       .  S
C163        C164   1.410       .  A
C163        C168   1.400   1_554  A
C164        C165   1.403       .  A
C164        H169   1.084       .  S
C165       C1399   1.471       .  S
C165        C166   1.392       .  A
C166        C167   1.395   1_554  A
C166        H170   1.084       .  S
C167       C1060   1.473       .  S
C167        C168   1.395       .  A
C168        H171   1.084       .  S
C172       C1256   1.530       .  S
C172        C173   1.427       .  A
C172        C177   1.426   1_554  A
C173        C174   1.414       .  A
C173        H178   1.073       .  S
C174       C1483   1.487       .  S
C174        C175   1.385       .  A
C175        C176   1.388   1_554  A
C175        H179   1.086       .  S
C176       C1046   1.482       .  S
C176        C177   1.409       .  A
C177        H180   1.082       .  S
O181        C192   1.286       .  A
O181       Eu217   2.433       .  S
O182        C193   1.294       .  A
O182       Eu216   2.477       .  S
O183        C194   1.298       .  A
O183       Eu189   2.490   1_455  S
O184        C195   1.295       .  A
O184       Eu189   2.485       .  S
O185        C195   1.285       .  A
O185       Eu219   2.428       .  S
O186        C194   1.284       .  A
O186       Eu218   2.409       .  S
O187        C193   1.291       .  A
O187       Eu189   2.457       .  S
O188        C192   1.293       .  A
O188       Eu189   2.472   1_455  S
Eu189       O199   2.367       .  S
Eu189       O191   2.341   1_655  S
Eu189       O190   2.357       .  S
Eu189       O197   2.393       .  S
O190       Eu219   2.354       .  S
O190       Eu216   2.353       .  S
O191       Eu217   2.364       .  S
O191       Eu218   2.367       .  S
C192       C1312   1.462       .  S
C193        C993   1.476       .  S
C194        C965   1.471       .  S
C195       C1287   1.463       .  S
H196        O197   0.969       .  S
O197       Eu218   2.350   1_655  S
O197       Eu216   2.347       .  S
H198        O199   0.969       .  S
O199       Eu217   2.353   1_655  S
O199       Eu219   2.366       .  S
O200        C223   1.289       .  A
O200       Eu216   2.441       .  S
O201        C224   1.289       .  A
O201       Eu217   2.452       .  S
O202        C225   1.311   1_455  A
O202       Eu218   2.591       .  S
O203        C226   1.297       .  A
O203       Eu219   2.500       .  S
O204        C227   1.294       .  A
O204       Eu219   2.466       .  S
O205        C228   1.292       .  A
O205       Eu218   2.466       .  S
O206        C229   1.302       .  A
O206       Eu220   2.516   1_455  S
O207        C230   1.298       .  A
O207       Eu220   2.490       .  S
O208        C229   1.277       .  A
O208       Eu218   2.375       .  S
O209        C230   1.288       .  A
O209       Eu219   2.441       .  S
O210        C225   1.290       .  A
O210       Eu216   2.466       .  S
O211        C228   1.294       .  A
O211       Eu217   2.475       .  S
O212        C227   1.298   1_455  A
O212       Eu217   2.505       .  S
O213        C226   1.282       .  A
O213       Eu216   2.405       .  S
O214        C223   1.281       .  A
O214       Eu220   2.395       .  S
O215        C224   1.291       .  A
O215       Eu220   2.455   1_455  S
Eu216       O234   2.362       .  S
Eu216       O222   2.320       .  S
Eu217       O221   2.358   1_455  S
Eu217       O232   2.352       .  S
Eu218       O232   2.369       .  S
Eu218       O222   2.290   1_455  S
Eu219       O221   2.368       .  S
Eu219       O234   2.342       .  S
Eu220       O221   2.339       .  S
Eu220       O232   2.335   1_655  S
Eu220       O234   2.370       .  S
Eu220       O222   2.334       .  S
C223       C1021   1.463       .  S
C224       C1091   1.489       .  S
C225       C1032   1.542       .  S
C226       C1007   1.476       .  S
C227        C951   1.507       .  S
C228        C976   1.483       .  S
C229       C1119   1.470       .  S
C230        C937   1.484       .  S
H231        O232   0.965       .  S
H233        O234   0.966       .  S
C235       C1004   1.490       .  S
C235        C236   1.405       .  A
C235        C240   1.420       .  A
C236        C237   1.394       .  A
C236        H241   1.084       .  S
C237       C1522   1.459       .  S
C237        C238   1.389       .  A
C238        C239   1.392       .  A
C238        H242   1.086       .  S
C239        C923   1.477       .  S
C239        C240   1.406       .  A
C240        H243   1.083       .  S
C244        C979   1.495       .  S
C244        C245   1.411       .  A
C244        C249   1.417       .  A
C245        C246   1.404       .  A
C245        H250   1.084       .  S
C246       C1441   1.482       .  S
C246        C247   1.400       .  A
C247        C248   1.393       .  A
C247        H251   1.086       .  S
C248        C906   1.484       .  S
C248        C249   1.404       .  A
C249        H252   1.083       .  S
C253        C948   1.515       .  S
C253        C254   1.417   1_655  A
C253        C258   1.422       .  A
C254        C255   1.407       .  A
C254        H259   1.083       .  S
C255       C1147   1.479       .  S
C255        C256   1.390   1_455  A
C256        C257   1.389       .  A
C256        H260   1.086       .  S
C257        C895   1.488       .  S
C257        C258   1.410       .  A
C258        H261   1.080       .  S
C262       C1035   1.543       .  S
C262        C263   1.417       .  A
C262        C267   1.434       .  A
C263        C264   1.422       .  A
C263        H268   1.080   1_655  S
C264       C1214   1.553   1_655  S
C264        C265   1.428       .  A
C265        C266   1.428       .  A
C265        H269   1.065       .  S
C266        C878   1.608       .  S
C266        C267   1.439       .  A
C267        H270   1.080       .  S
O271        C282   1.298       .  A
O271       Eu307   2.491   1_455  S
O272        C283   1.294       .  A
O272       Eu306   2.476   1_455  S
O273        C284   1.294       .  A
O273       Eu279   2.484       .  S
O274        C285   1.291   1_455  A
O274       Eu279   2.463       .  S
O275        C285   1.288       .  A
O275       Eu309   2.427       .  S
O276        C284   1.294       .  A
O276       Eu308   2.476       .  S
O277        C283   1.289       .  A
O277       Eu279   2.452       .  S
O278        C282   1.286       .  A
O278       Eu279   2.427       .  S
Eu279       O289   2.362   1_455  S
Eu279       O281   2.345       .  S
Eu279       O280   2.371   1_455  S
Eu279       O287   2.355       .  S
O280       Eu309   2.375       .  S
O280       Eu306   2.348       .  S
O281       Eu307   2.346   1_455  S
O281       Eu308   2.343       .  S
C282       C1298   1.486       .  S
C283       C1074   1.488       .  S
C284        C836   1.504       .  S
C285        C783   1.476       .  S
H286        O287   0.967       .  S
O287       Eu308   2.363       .  S
O287       Eu306   2.373   1_455  S
H288        O289   0.969       .  S
O289       Eu307   2.342       .  S
O289       Eu309   2.360       .  S
O290        C313   1.293       .  A
O290       Eu306   2.471       .  S
O291        C314   1.295       .  A
O291       Eu307   2.479       .  S
O292        C315   1.290       .  A
O292       Eu308   2.452       .  S
O293        C316   1.287       .  A
O293       Eu309   2.434       .  S
O294        C317   1.288       .  A
O294       Eu309   2.446       .  S
O295        C318   1.287       .  A
O295       Eu308   2.431       .  S
O296        C319   1.287       .  A
O296       Eu310   2.431       .  S
O297        C320   1.288       .  A
O297       Eu310   2.437       .  S
O298        C319   1.292   1_455  A
O298       Eu308   2.473       .  S
O299        C320   1.296       .  A
O299       Eu309   2.495       .  S
O300        C315   1.287       .  A
O300       Eu306   2.424   1_455  S
O301        C318   1.292       .  A
O301       Eu307   2.460   1_455  S
O302        C317   1.298       .  A
O302       Eu307   2.486       .  S
O303        C316   1.294       .  A
O303       Eu306   2.473       .  S
O304        C313   1.289       .  A
O304       Eu310   2.452       .  S
O305        C314   1.287       .  A
O305       Eu310   2.436       .  S
Eu306       O324   2.367       .  S
Eu306       O312   2.335       .  S
Eu307       O311   2.336       .  S
Eu307       O322   2.367       .  S
Eu308       O322   2.363   1_455  S
Eu308       O312   2.327   1_455  S
Eu309       O311   2.324       .  S
Eu309       O324   2.354       .  S
Eu310       O311   2.336       .  S
Eu310       O322   2.348       .  S
Eu310       O324   2.344       .  S
Eu310       O312   2.322       .  S
C313        C850   1.472       .  S
C314        C794   1.489       .  S
C315       C1102   1.472       .  S
C316        C766   1.464       .  S
C317       C1273   1.492       .  S
C318        C822   1.487       .  S
C319        C864   1.489       .  S
C320        C811   1.498       .  S
H321        O322   0.968       .  S
H323        O324   0.965       .  S
C325        C808   1.511       .  S
C325        C326   1.420       .  A
C325        C330   1.422       .  A
C326        C327   1.410       .  A
C326        H331   1.078       .  S
C327       C1511   1.499       .  S
C327        C328   1.392       .  A
C328        C329   1.393       .  A
C328        H332   1.085       .  S
C329        C752   1.493       .  S
C329        C330   1.409       .  A
C330        H333   1.080       .  S
C334        C839   1.511       .  S
C334        C335   1.420       .  A
C334        C339   1.417       .  A
C335        C336   1.411       .  A
C335        H340   1.082       .  S
C336       C1424   1.479       .  S
C336        C337   1.392       .  A
C337        C338   1.391       .  A
C337        H341   1.086       .  S
C338        C738   1.476       .  S
C338        C339   1.403       .  A
C339        H342   1.083       .  S
C343        C780   1.485       .  S
C343        C344   1.406   1_655  A
C343        C348   1.409       .  A
C344        C345   1.396       .  A
C344        H349   1.084       .  S
C345       C1133   1.464       .  S
C345        C346   1.390   1_455  A
C346        C347   1.391       .  A
C346        H350   1.085       .  S
C347        C724   1.468       .  S
C347        C348   1.401       .  A
C348        H351   1.082       .  S
C352        C867   1.485       .  S
C352        C353   1.408   1_655  A
C352        C357   1.414       .  A
C353        C354   1.396       .  A
C353        H358   1.084       .  S
C354       C1200   1.466       .  S
C354        C355   1.386   1_455  A
C355        C356   1.390       .  A
C355        H359   1.082       .  S
C356        C713   1.481       .  S
C356        C357   1.408       .  A
C357        H360   1.083       .  S
O361        C372   1.284       .  A
O361       Eu397   2.417       .  S
O362        C373   1.292       .  A
O362       Eu396   2.480       .  S
O363        C374   1.297       .  A
O363       Eu369   2.486   1_556  S
O364        C375   1.293       .  A
O364       Eu369   2.451       .  S
O365        C375   1.287       .  A
O365       Eu399   2.437       .  S
O366        C374   1.286       .  A
O366       Eu398   2.427       .  S
O367        C373   1.294       .  A
O367       Eu369   2.474   1_556  S
O368        C372   1.293       .  A
O368       Eu369   2.466       .  S
Eu369       O379   2.379       .  S
Eu369       O371   2.309       .  S
Eu369       O370   2.347       .  S
Eu369       O377   2.357   1_554  S
O370       Eu399   2.340       .  S
O370       Eu396   2.334   1_554  S
O371       Eu397   2.351       .  S
O371       Eu398   2.348   1_554  S
C372       C1354   1.472       .  S
C373        C657   1.480       .  S
C374        C682   1.496       .  S
C375       C1326   1.469       .  S
H376        O377   0.969       .  S
O377       Eu398   2.318       .  S
O377       Eu396   2.358       .  S
H378        O379   0.970       .  S
O379       Eu397   2.336       .  S
O379       Eu399   2.360       .  S
O380        C403   1.299       .  A
O380       Eu396   2.528       .  S
O381        C404   1.282       .  A
O381       Eu397   2.414       .  S
O382        C405   1.331       .  A
O382       Eu398   2.645       .  S
O383        C406   1.289       .  A
O383       Eu399   2.452       .  S
O384        C407   1.286       .  A
O384       Eu399   2.440       .  S
O385        C408   1.303   1_556  A
O385       Eu398   2.526       .  S
O386        C409   1.298       .  A
O386       Eu400   2.506   1_556  S
O387        C410   1.302       .  A
O387       Eu400   2.520       .  S
O388        C409   1.280       .  A
O388       Eu398   2.395       .  S
O389        C410   1.283       .  A
O389       Eu399   2.414       .  S
O390        C405   1.276       .  A
O390       Eu396   2.410       .  S
O391        C408   1.291       .  A
O391       Eu397   2.458       .  S
O392        C407   1.298       .  A
O392       Eu397   2.515       .  S
O393        C406   1.284   1_556  A
O393       Eu396   2.423       .  S
O394        C403   1.280       .  A
O394       Eu400   2.458   1_556  S
O395        C404   1.290       .  A
O395       Eu400   2.461       .  S
Eu396       O414   2.342   1_556  S
Eu396       O402   2.346       .  S
Eu397       O401   2.355       .  S
Eu397       O412   2.359       .  S
Eu398       O412   2.386   1_556  S
Eu398       O402   2.330       .  S
Eu399       O401   2.371       .  S
Eu399       O414   2.366       .  S
Eu400       O401   2.376       .  S
Eu400       O412   2.359       .  S
Eu400       O414   2.408       .  S
Eu400       O402   2.396   1_554  S
C403        C626   1.520       .  S
C404        C727   1.452       .  S
C405        C881   1.554       .  S
C406        C668   1.455       .  S
C407        C640   1.489       .  S
C408        C696   1.502       .  S
C409        C710   1.482       .  S
C410        C892   1.473       .  S
H411        O412   0.963       .  S
H413        O414   0.965       .  S
C415        C629   1.464       .  S
C415        C416   1.392       .  A
C415        C420   1.415       .  A
C416        C417   1.382       .  A
C416        H421   1.069       .  S
C417       C1018   1.455       .  S
C417        C418   1.388       .  A
C418        C419   1.393       .  A
C418        H422   1.085       .  S
C419        C853   1.481       .  S
C419        C420   1.415       .  A
C420        H423   1.083       .  S
C424        C643   1.490       .  S
C424        C425   1.405       .  A
C424        C429   1.417       .  A
C425        C426   1.401       .  A
C425        H430   1.084       .  S
C426        C769   1.471       .  S
C426        C427   1.394       .  A
C427        C428   1.397       .  A
C427        H431   1.086       .  S
C428        C934   1.488       .  S
C428        C429   1.412       .  A
C429        H432   1.083       .  S
C433        C671   1.466       .  S
C433        C434   1.400       .  A
C433        C438   1.408   1_554  A
C434        C435   1.393       .  A
C434        H439   1.084       .  S
C435       C1385   1.463       .  S
C435        C436   1.391       .  A
C436        C437   1.397   1_554  A
C436        H440   1.084       .  S
C437        C612   1.487       .  S
C437        C438   1.406       .  A
C438        H441   1.083       .  S
C442        C699   1.514       .  S
C442        C443   1.415       .  A
C442        C447   1.418   1_554  A
C443        C444   1.408       .  A
C443        H448   1.083       .  S
C444       C1466   1.479       .  S
C444        C445   1.391       .  A
C445        C446   1.395   1_554  A
C445        H449   1.083       .  S
C446        C601   1.504       .  S
C446        C447   1.417       .  A
C447        H450   1.074       .  S
O451        C462   1.282       .  A
O451       Eu487   2.405       .  S
O452        C463   1.284       .  A
O452       Eu486   2.424       .  S
O453        C464   1.297       .  A
O453       Eu459   2.488       .  S
O454        C465   1.293       .  A
O454       Eu459   2.470   1_545  S
O455        C465   1.287       .  A
O455       Eu489   2.425       .  S
O456        C464   1.288       .  A
O456       Eu488   2.448       .  S
O457        C463   1.299       .  A
O457       Eu459   2.498       .  S
O458        C462   1.295       .  A
O458       Eu459   2.473   1_545  S
Eu459       O469   2.348   1_565  S
Eu459       O461   2.365       .  S
Eu459       O460   2.378       .  S
Eu459       O467   2.332       .  S
O460       Eu489   2.359   1_565  S
O460       Eu486   2.358       .  S
O461       Eu487   2.362   1_565  S
O461       Eu488   2.345       .  S
C462       C1063   1.468       .  S
C463        C598   1.498       .  S
C464       C1049   1.484       .  S
C465        C615   1.486       .  S
H466        O467   0.967       .  S
O467       Eu488   2.343       .  S
O467       Eu486   2.344       .  S
H468        O469   0.965       .  S
O469       Eu487   2.342       .  S
O469       Eu489   2.345       .  S
O470        C493   1.285       .  A
O470       Eu486   2.423       .  S
O471        C494   1.286       .  A
O471       Eu487   2.430       .  S
O472        C495   1.292       .  A
O472       Eu488   2.462       .  S
O473        C496   1.296       .  A
O473       Eu489   2.494   1_565  S
O474        C497   1.293       .  A
O474       Eu489   2.481       .  S
O475        C498   1.286       .  A
O475       Eu488   2.438       .  S
O476        C499   1.297       .  A
O476       Eu490   2.487       .  S
O477        C500   1.300       .  A
O477       Eu490   2.504   1_545  S
O478        C499   1.286       .  A
O478       Eu488   2.430       .  S
O479        C500   1.283       .  A
O479       Eu489   2.412       .  S
O480        C495   1.291       .  A
O480       Eu486   2.465       .  S
O481        C498   1.292       .  A
O481       Eu487   2.470   1_565  S
O482        C497   1.296       .  A
O482       Eu487   2.496       .  S
O483        C496   1.290       .  A
O483       Eu486   2.454       .  S
O484        C493   1.299       .  A
O484       Eu490   2.496       .  S
O485        C494   1.300       .  A
O485       Eu490   2.503   1_545  S
Eu486       O504   2.347       .  S
Eu486       O492   2.348       .  S
Eu487       O491   2.342       .  S
Eu487       O502   2.352   1_545  S
Eu488       O502   2.369       .  S
Eu488       O492   2.348       .  S
Eu489       O491   2.354       .  S
Eu489       O504   2.348   1_545  S
Eu490       O491   2.361   1_565  S
Eu490       O502   2.351       .  S
Eu490       O504   2.336       .  S
Eu490       O492   2.369       .  S
C493        C755   1.485       .  S
C494        C909   1.487       .  S
C495        C545   1.486       .  S
C496        C584   1.486       .  S
C497        C556   1.492       .  S
C498        C573   1.465       .  S
C499        C741   1.467       .  S
C500        C920   1.477       .  S
H501        O502   0.967       .  S
H503        O504   0.966       .  S
C505        C542   1.497       .  S
C505        C506   1.412       .  A
C505        C510   1.419       .  A
C506        C507   1.396       .  A
C506        H511   1.081       .  S
C507       C1242   1.472       .  S
C507        C508   1.390       .  A
C508        C509   1.396       .  A
C508        H512   1.084       .  S
C509        C685   1.495       .  S
C509        C510   1.413       .  A
C510        H513   1.083       .  S
C514        C559   1.494       .  S
C514        C515   1.414       .  A
C514        C519   1.412       .  A
C515        C516   1.409       .  A
C515        H520   1.083       .  S
C516       C1172   1.491       .  S
C516        C517   1.400       .  A
C517        C518   1.395       .  A
C517        H521   1.085       .  S
C518        C654   1.487       .  S
C518        C519   1.411       .  A
C519        H522   1.084       .  S
C523        C570   1.471       .  S
C523        C524   1.401       .  A
C523        C528   1.411       .  A
C524        C525   1.391       .  A
C524        H529   1.084   1_565  S
C525        C962   1.467   1_565  S
C525        C526   1.388       .  A
C526        C527   1.405       .  A
C526        H530   1.084       .  S
C527        C825   1.499       .  S
C527        C528   1.414       .  A
C528        H531   1.081       .  S
C532        C587   1.495       .  S
C532        C533   1.412       .  A
C532        C537   1.419       .  A
C533        C534   1.403       .  A
C533        H538   1.083   1_565  S
C534        C990   1.475   1_565  S
C534        C535   1.388       .  A
C535        C536   1.399       .  A
C535        H539   1.085       .  S
C536        C797   1.491       .  S
C536        C537   1.410       .  A
C537        H540   1.081       .  S
C541        C542   1.408       .  A
C541        C546   1.408       .  A
C541        H548   1.083       .  S
C542        C543   1.416       .  A
C543        C544   1.402       .  A
C543        N550   1.433       .  S
C544        C545   1.404       .  A
C544        H549   1.084       .  S
C545        C546   1.411       .  A
C546        N547   1.432       .  S
N547        H551   1.045       .  S
N547        H552   1.046       .  S
N550        H553   1.046       .  S
N550        H554   1.046       .  S
C555        C556   1.407       .  A
C555        C560   1.414       .  A
C555        H562   1.084       .  S
C556        C557   1.421       .  A
C557        C558   1.405       .  A
C557        N564   1.439       .  S
C558        C559   1.402       .  A
C558        H563   1.084       .  S
C559        C560   1.420       .  A
C560        N561   1.438       .  S
N561        H565   1.046       .  S
N561        H566   1.044       .  S
N564        H567   1.042       .  S
N564        H568   1.045       .  S
C569        C570   1.403       .  A
C569        C574   1.403       .  A
C569        H576   1.084       .  S
C570        C571   1.407       .  A
C571        C572   1.400       .  A
C571        N578   1.438       .  S
C572        C573   1.402       .  A
C572        H577   1.085       .  S
C573        C574   1.415       .  A
C574        N575   1.438       .  S
N575        H579   1.046       .  S
N575        H580   1.044       .  S
N578        H581   1.046       .  S
N578        H582   1.046       .  S
C583        C584   1.407       .  A
C583        C588   1.402       .  A
C583        H590   1.084       .  S
C584        C585   1.416       .  A
C585        C586   1.412       .  A
C585        N592   1.437       .  S
C586        C587   1.410       .  A
C586        H591   1.084       .  S
C587        C588   1.407       .  A
C588        N589   1.432       .  S
N589        H593   1.046       .  S
N589        H594   1.042       .  S
N592        H595   1.043       .  S
N592        H596   1.045   1_565  S
C597        C598   1.400       .  A
C597        C602   1.403       .  A
C597        H604   1.084       .  S
C598        C599   1.425       .  A
C599        C600   1.408       .  A
C599        N606   1.439       .  S
C600        C601   1.401       .  A
C600        H605   1.082       .  S
C601        C602   1.425       .  A
C602        N603   1.434   1_556  S
N603        H607   1.046       .  S
N603        H608   1.045       .  S
N606        H609   1.046       .  S
N606        H610   1.046       .  S
C611        C612   1.410       .  A
C611        C616   1.403       .  A
C611        H618   1.084       .  S
C612        C613   1.405       .  A
C613        C614   1.397       .  A
C613        N620   1.432       .  S
C614        C615   1.410       .  A
C614        H619   1.083       .  S
C615        C616   1.415       .  A
C616        N617   1.439       .  S
N617        H621   1.046       .  S
N617        H622   1.046       .  S
N620        H623   1.046       .  S
N620        H624   1.045       .  S
C625        C626   1.640       .  A
C625        C630   2.569       .  A
C625        H632   1.086       .  S
C626        C627   1.704       .  A
C627        C628   1.746       .  A
C627        N634   1.429       .  S
C628        C629   1.725       .  A
C628        H633   1.081       .  S
C629        C630   1.724       .  A
C630        N631   1.458       .  S
N631        H635   1.043       .  S
N631        H636   1.045       .  S
N634        H637   1.045       .  S
N634        H638   1.043       .  S
C639        C640   1.404       .  A
C639        C644   1.406       .  A
C639        H646   1.084       .  S
C640        C641   1.420       .  A
C641        C642   1.414       .  A
C641        N648   1.438       .  S
C642        C643   1.408       .  A
C642        H647   1.084       .  S
C643        C644   1.410       .  A
C644        N645   1.439       .  S
N645        H649   1.045       .  S
N645        H650   1.045       .  S
N648        H651   1.044       .  S
N648        H652   1.045       .  S
C653        C654   1.409       .  A
C653        C658   1.412       .  A
C653        H660   1.084       .  S
C654        C655   1.422       .  A
C655        C656   1.401       .  A
C655        N662   1.440       .  S
C656        C657   1.397       .  A
C656        H661   1.075       .  S
C657        C658   1.409       .  A
C658        N659   1.438       .  S
N659        H663   1.045       .  S
N659        H664   1.046       .  S
N662        H665   1.040       .  S
N662        H666   1.046       .  S
C667        C668   1.397       .  A
C667        C672   1.402       .  A
C667        H674   1.084       .  S
C668        C669   1.408       .  A
C669        C670   1.394       .  A
C669        N676   1.438       .  S
C670        C671   1.397       .  A
C670        H675   1.085       .  S
C671        C672   1.419       .  A
C672        N673   1.438       .  S
N673        H677   1.046   1_554  S
N673        H678   1.043       .  S
N676        H679   1.040       .  S
N676        H680   1.046       .  S
C681        C682   1.402       .  A
C681        C686   1.397       .  A
C681        H688   1.084       .  S
C682        C683   1.425       .  A
C683        C684   1.411       .  A
C683        N690   1.438       .  S
C684        C685   1.401       .  A
C684        H689   1.083       .  S
C685        C686   1.418       .  A
C686        N687   1.433       .  S
N687        H691   1.043       .  S
N687        H692   1.046       .  S
N690        H693   1.046       .  S
N690        H694   1.046       .  S
C695        C696   1.405   1_556  A
C695        C700   1.409       .  A
C695        H702   1.084       .  S
C696        C697   1.425       .  A
C697        C698   1.408       .  A
C697        N704   1.438       .  S
C698        C699   1.409       .  A
C698        H703   1.084       .  S
C699        C700   1.425   1_554  A
C700        N701   1.432       .  S
N701        H705   1.042       .  S
N701        H706   1.045       .  S
N704        H707   1.037       .  S
N704        H708   1.046       .  S
C709        C710   1.398       .  A
C709        C714   1.403       .  A
C709        H716   1.082       .  S
C710        C711   1.422       .  A
C711        C712   1.390       .  A
C711        N718   1.425       .  S
C712        C713   1.394       .  A
C712        H717   1.084       .  S
C713        C714   1.418       .  A
C714        N715   1.438       .  S
N715        H719   1.046       .  S
N715        H720   1.045       .  S
N718        H721   1.037       .  S
N718        H722   1.045       .  S
C723        C724   1.401       .  A
C723        C728   1.401       .  A
C723        H730   1.084       .  S
C724        C725   1.426       .  A
C725        C726   1.393       .  A
C725        N732   1.440       .  S
C726        C727   1.390       .  A
C726        H731   1.085       .  S
C727        C728   1.407       .  A
C728        N729   1.437       .  S
N729        H733   1.046       .  S
N729        H734   1.041       .  S
N732        H735   1.039       .  S
N732        H736   1.046       .  S
C737        C738   1.404       .  A
C737        C742   1.406       .  A
C737        H744   1.084       .  S
C738        C739   1.412       .  A
C739        C740   1.404       .  A
C739        N746   1.438       .  S
C740        C741   1.400       .  A
C740        H745   1.084       .  S
C741        C742   1.408       .  A
C742        N743   1.437       .  S
N743        H747   1.046       .  S
N743        H748   1.046       .  S
N746        H749   1.046       .  S
N746        H750   1.045       .  S
C751        C752   1.410       .  A
C751        C756   1.401       .  A
C751        H758   1.084       .  S
C752        C753   1.408       .  A
C753        C754   1.411       .  A
C753        N760   1.437       .  S
C754        C755   1.412       .  A
C754        H759   1.083       .  S
C755        C756   1.408       .  A
C756        N757   1.438       .  S
N757        H761   1.046       .  S
N757        H762   1.045       .  S
N760        H763   1.045       .  S
N760        H764   1.046       .  S
C765        C766   1.395       .  A
C765        C770   1.400       .  A
C765        H772   1.084       .  S
C766        C767   1.413       .  A
C767        C768   1.406       .  A
C767        N774   1.438       .  S
C768        C769   1.398       .  A
C768        H773   1.084       .  S
C769        C770   1.413       .  A
C770        N771   1.438       .  S
N771        H775   1.045       .  S
N771        H776   1.045       .  S
N774        H777   1.046       .  S
N774        H778   1.046       .  S
C779        C780   1.408   1_455  A
C779        C784   1.407       .  A
C779        H786   1.084       .  S
C780        C781   1.413       .  A
C781        C782   1.389       .  A
C781        N788   1.431       .  S
C782        C783   1.401       .  A
C782        H787   1.084       .  S
C783        C784   1.413   1_655  A
C784        N785   1.438       .  S
N785        H789   1.046       .  S
N785        H790   1.045       .  S
N788        H791   1.046       .  S
N788        H792   1.046       .  S
C793        C794   1.411       .  A
C793        C798   1.411       .  A
C793        H800   1.083       .  S
C794        C795   1.412       .  A
C795        C796   1.400       .  A
C795        N802   1.436       .  S
C796        C797   1.405       .  A
C796        H801   1.084       .  S
C797        C798   1.410       .  A
C798        N799   1.436       .  S
N799        H803   1.046       .  S
N799        H804   1.045       .  S
N802        H805   1.045       .  S
N802        H806   1.046       .  S
C807        C808   1.415       .  A
C807        C812   1.416       .  A
C807        H814   1.082       .  S
C808        C809   1.419       .  A
C809        C810   1.405       .  A
C809        N816   1.439       .  S
C810        C811   1.407       .  A
C810        H815   1.083       .  S
C811        C812   1.412       .  A
C812        N813   1.437       .  S
N813        H817   1.046       .  S
N813        H818   1.045       .  S
N816        H819   1.046       .  S
N816        H820   1.046       .  S
C821        C822   1.414       .  A
C821        C826   1.412       .  A
C821        H828   1.083       .  S
C822        C823   1.410       .  A
C823        C824   1.388       .  A
C823        N830   1.438       .  S
C824        C825   1.409       .  A
C824        H829   1.078       .  S
C825        C826   1.412       .  A
C826        N827   1.436       .  S
N827        H831   1.046       .  S
N827        H832   1.045       .  S
N830        H833   1.040       .  S
N830        H834   1.046       .  S
C835        C836   1.409       .  A
C835        C840   1.418       .  A
C835        H842   1.083       .  S
C836        C837   1.417       .  A
C837        C838   1.407       .  A
C837        N844   1.438       .  S
C838        C839   1.408       .  A
C838        H843   1.082       .  S
C839        C840   1.419       .  A
C840        N841   1.437       .  S
N841        H845   1.046       .  S
N841        H846   1.045       .  S
N844        H847   1.045       .  S
N844        H848   1.046       .  S
C849        C850   1.397       .  A
C849        C854   1.406       .  A
C849        H856   1.084       .  S
C850        C851   1.412       .  A
C851        C852   1.405       .  A
C851        N858   1.435       .  S
C852        C853   1.400       .  A
C852        H857   1.084       .  S
C853        C854   1.418       .  A
C854        N855   1.438       .  S
N855        H859   1.046       .  S
N855        H860   1.045       .  S
N858        H861   1.039       .  S
N858        H862   1.046       .  S
C863        C864   1.410       .  A
C863        C868   1.401       .  A
C863        H870   1.083       .  S
C864        C865   1.414   1_655  A
C865        C866   1.407       .  A
C865        N872   1.438       .  S
C866        C867   1.406   1_455  A
C866        H871   1.084       .  S
C867        C868   1.410       .  A
C868        N869   1.439       .  S
N869        H873   1.046       .  S
N869        H874   1.046       .  S
N872        H875   1.045       .  S
N872        H876   1.046       .  S
C877        C878   2.673       .  A
C877        C882   1.682       .  A
C877        H884   1.096       .  S
C878        C879   1.780       .  A
C879        C880   1.759       .  A
C879        N886   1.425       .  S
C880        C881   1.754       .  A
C880        H885   1.082       .  S
C881        C882   1.662       .  A
C882        N883   1.431       .  S
N883        H887   1.044       .  S
N883        H888   1.043       .  S
N886        H889   1.044       .  S
N886        H890   1.044       .  S
C891        C892   1.400       .  A
C891        C896   1.406       .  A
C891        H898   1.084       .  S
C892        C893   1.410       .  A
C893        C894   1.408       .  A
C893        N900   1.438       .  S
C894        C895   1.408       .  A
C894        H899   1.084       .  S
C895        C896   1.417       .  A
C896        N897   1.438       .  S
N897        H901   1.046       .  S
N897        H902   1.046       .  S
N900        H903   1.046       .  S
N900        H904   1.046       .  S
C905        C906   1.407       .  A
C905        C910   1.404       .  A
C905        H912   1.082       .  S
C906        C907   1.405       .  A
C907        C908   1.412       .  A
C907        N914   1.437       .  S
C908        C909   1.413       .  A
C908        H913   1.084       .  S
C909        C910   1.408       .  A
C910        N911   1.438       .  S
N911        H915   1.046       .  S
N911        H916   1.046   1_545  S
N914        H917   1.045       .  S
N914        H918   1.046       .  S
C919        C920   1.399       .  A
C919        C924   1.404       .  A
C919        H926   1.084       .  S
C920        C921   1.418       .  A
C921        C922   1.407       .  A
C921        N928   1.439       .  S
C922        C923   1.397       .  A
C922        H927   1.084       .  S
C923        C924   1.414       .  A
C924        N925   1.438       .  S
N925        H929   1.046       .  S
N925        H930   1.046       .  S
N928        H931   1.046       .  S
N928        H932   1.046       .  S
C933        C934   1.409       .  A
C933        C938   1.403       .  A
C933        H940   1.083       .  S
C934        C935   1.415       .  A
C935        C936   1.408       .  A
C935        N942   1.438       .  S
C936        C937   1.411       .  A
C936        H941   1.084       .  S
C937        C938   1.407       .  A
C938        N939   1.438       .  S
N939        H943   1.046       .  S
N939        H944   1.046       .  S
N942        H945   1.043       .  S
N942        H946   1.046       .  S
C947        C948   1.414   1_455  A
C947        C952   1.419       .  A
C947        H954   1.083       .  S
C948        C949   1.417       .  A
C949        C950   1.404       .  A
C949        N956   1.431       .  S
C950        C951   1.407       .  A
C950        H955   1.084       .  S
C951        C952   1.417   1_655  A
C952        N953   1.437       .  S
N953        H957   1.046       .  S
N953        H958   1.046       .  S
N956        H959   1.046       .  S
N956        H960   1.046       .  S
C961        C962   1.395       .  A
C961        C966   1.402       .  A
C961        H968   1.084       .  S
C962        C963   1.421       .  A
C963        C964   1.396       .  A
C963        N970   1.440   1_545  S
C964        C965   1.398       .  A
C964        H969   1.084       .  S
C965        C966   1.417       .  A
C966        N967   1.438       .  S
N967        H971   1.046       .  S
N967        H972   1.045       .  S
N970        H973   1.043       .  S
N970        H974   1.045       .  S
C975        C976   1.404       .  A
C975        C980   1.407       .  A
C975        H982   1.084       .  S
C976        C977   1.412       .  A
C977        C978   1.404       .  A
C977        N984   1.439       .  S
C978        C979   1.406       .  A
C978        H983   1.083       .  S
C979        C980   1.423       .  A
C980        N981   1.438       .  S
N981        H985   1.045       .  S
N981        H986   1.042       .  S
N984        H987   1.045       .  S
N984        H988   1.046       .  S
C989        C990   1.403       .  A
C989        C994   1.403       .  A
C989        H996   1.084       .  S
C990        C991   1.408       .  A
C991        C992   1.409       .  A
C991        N998   1.437       .  S
C992        C993   1.404       .  A
C992        H997   1.084       .  S
C993        C994   1.411       .  A
C994        N995   1.438       .  S
N995        H999   1.046       .  S
N995       H1000   1.045       .  S
N998       H1001   1.045       .  S
N998       H1002   1.046       .  S
C1003      C1004   1.400       .  A
C1003      C1008   1.396       .  A
C1003      H1010   1.083       .  S
C1004      C1005   1.426       .  A
C1005      C1006   1.408       .  A
C1005      N1012   1.437       .  S
C1006      C1007   1.399       .  A
C1006      H1011   1.084       .  S
C1007      C1008   1.413       .  A
C1008      N1009   1.436       .  S
N1009      H1013   1.046       .  S
N1009      H1014   1.042       .  S
N1012      H1015   1.043       .  S
N1012      H1016   1.045       .  S
C1017      C1018   1.392       .  A
C1017      C1022   1.383       .  A
C1017      H1024   1.085       .  S
C1018      C1019   1.408       .  A
C1019      C1020   1.402       .  A
C1019      N1026   1.438       .  S
C1020      C1021   1.405       .  A
C1020      H1025   1.084       .  S
C1021      C1022   1.419       .  A
C1022      N1023   1.440       .  S
N1023      H1027   1.046       .  S
N1023      H1028   1.046       .  S
N1026      H1029   1.044       .  S
N1026      H1030   1.046       .  S
C1031      C1032   1.413       .  A
C1031      C1036   1.430       .  A
C1031      H1038   1.082   1_655  S
C1032      C1033   1.425       .  A
C1033      C1034   1.435       .  A
C1033      N1040   1.437       .  S
C1034      C1035   1.413       .  A
C1034      H1039   1.083       .  S
C1035      C1036   1.421       .  A
C1036      N1037   1.437       .  S
N1037      H1041   1.046   1_655  S
N1037      H1042   1.045       .  S
N1040      H1043   1.045       .  S
N1040      H1044   1.045       .  S
C1045      C1046   1.403       .  A
C1045      C1050   1.413       .  A
C1045      H1052   1.084       .  S
C1046      C1047   1.419       .  A
C1047      C1048   1.398       .  A
C1047      N1054   1.439       .  S
C1048      C1049   1.400       .  A
C1048      H1053   1.084       .  S
C1049      C1050   1.417       .  A
C1050      N1051   1.437       .  S
N1051      H1055   1.046       .  S
N1051      H1056   1.045       .  S
N1054      H1057   1.044       .  S
N1054      H1058   1.046       .  S
C1059      C1060   1.400       .  A
C1059      C1064   1.396       .  A
C1059      H1066   1.083       .  S
C1060      C1061   1.417       .  A
C1061      C1062   1.393       .  A
C1061      N1068   1.438       .  S
C1062      C1063   1.399       .  A
C1062      H1067   1.084       .  S
C1063      C1064   1.418       .  A
C1064      N1065   1.440       .  S
N1065      H1069   1.046       .  S
N1065      H1070   1.043       .  S
N1068      H1071   1.044   1_556  S
N1068      H1072   1.045   1_556  S
C1073      C1074   1.413       .  A
C1073      C1078   1.409       .  A
C1073      H1080   1.084       .  S
C1074      C1075   1.410       .  A
C1075      C1076   1.398       .  A
C1075      N1082   1.439       .  S
C1076      C1077   1.405       .  A
C1076      H1081   1.079       .  S
C1077      C1078   1.414       .  A
C1078      N1079   1.438       .  S
N1079      H1083   1.045       .  S
N1079      H1084   1.043       .  S
N1082      H1085   1.045       .  S
N1082      H1086   1.046       .  S
C1087      C1088   1.406       .  A
C1087      C1092   1.390       .  A
C1087      H1094   1.077       .  S
C1088      C1089   1.419       .  A
C1089      C1090   1.412       .  A
C1089      N1096   1.437       .  S
C1090      C1091   1.413       .  A
C1090      H1095   1.084       .  S
C1091      C1092   1.408       .  A
C1092      N1093   1.434       .  S
N1093      H1097   1.046       .  S
N1093      H1098   1.046       .  S
N1096      H1099   1.043       .  S
N1096      H1100   1.045       .  S
C1101      C1102   1.406       .  A
C1101      C1106   1.390       .  A
C1101      H1108   1.084       .  S
C1102      C1103   1.411       .  A
C1103      C1104   1.402       .  A
C1103      N1110   1.437       .  S
C1104      C1105   1.404       .  A
C1104      H1109   1.083       .  S
C1105      C1106   1.406       .  A
C1106      N1107   1.435       .  S
N1107      H1111   1.046       .  S
N1107      H1112   1.045   1_455  S
N1110      H1113   1.045       .  S
N1110      H1114   1.046       .  S
C1115      C1116   1.398       .  A
C1115      C1120   1.402       .  A
C1115      H1122   1.084       .  S
C1116      C1117   1.422       .  A
C1117      C1118   1.395       .  A
C1117      N1124   1.438       .  S
C1118      C1119   1.395       .  A
C1118      H1123   1.084       .  S
C1119      C1120   1.420       .  A
C1120      N1121   1.438       .  S
N1121      H1125   1.046       .  S
N1121      H1126   1.045       .  S
N1124      H1127   1.044       .  S
N1124      H1128   1.046       .  S
C1129      C1130   1.396       .  A
C1129      C1134   1.387       .  A
C1129      H1136   1.085       .  S
C1130      C1131   1.417       .  A
C1131      C1132   1.400       .  A
C1131      N1138   1.439       .  S
C1132      C1133   1.397       .  A
C1132      H1137   1.084       .  S
C1133      C1134   1.416       .  A
C1134      N1135   1.433       .  S
N1135      H1139   1.043   1_455  S
N1135      H1140   1.044   1_455  S
N1138      H1141   1.045       .  S
N1138      H1142   1.046       .  S
C1143      C1144   1.398       .  A
C1143      C1148   1.400       .  A
C1143      H1150   1.084       .  S
C1144      C1145   1.421       .  A
C1145      C1146   1.407       .  A
C1145      N1152   1.438       .  S
C1146      C1147   1.397       .  A
C1146      H1151   1.084       .  S
C1147      C1148   1.417       .  A
C1148      N1149   1.439   1_455  S
N1149      H1153   1.045       .  S
N1149      H1154   1.045       .  S
N1152      H1155   1.046       .  S
N1152      H1156   1.045       .  S
C1157      C1158   1.404       .  A
C1157      C1162   1.412       .  A
C1157      H1164   1.084       .  S
C1158      C1159   1.410       .  A
C1159      C1160   1.403       .  A
C1159      N1166   1.439       .  S
C1160      C1161   1.401       .  A
C1160      H1165   1.084       .  S
C1161      C1162   1.412       .  A
C1162      N1163   1.437       .  S
N1163      H1167   1.046       .  S
N1163      H1168   1.046       .  S
N1166      H1169   1.046       .  S
N1166      H1170   1.046       .  S
C1171      C1172   1.404       .  A
C1171      C1176   1.414       .  A
C1171      H1178   1.083       .  S
C1172      C1173   1.415       .  A
C1173      C1174   1.401       .  A
C1173      N1180   1.439       .  S
C1174      C1175   1.402       .  A
C1174      H1179   1.084       .  S
C1175      C1176   1.417       .  A
C1176      N1177   1.438       .  S
N1177      H1181   1.046       .  S
N1177      H1182   1.046       .  S
N1180      H1183   1.045       .  S
N1180      H1184   1.045       .  S
C1185      C1186   1.404   1_556  A
C1185      C1190   1.399       .  A
C1185      H1192   1.084       .  S
C1186      C1187   1.412       .  A
C1187      C1188   1.397       .  A
C1187      N1194   1.432       .  S
C1188      C1189   1.399       .  A
C1188      H1193   1.084       .  S
C1189      C1190   1.413   1_554  A
C1190      N1191   1.439       .  S
N1191      H1195   1.046       .  S
N1191      H1196   1.045       .  S
N1194      H1197   1.046       .  S
N1194      H1198   1.045       .  S
C1199      C1200   1.397       .  A
C1199      C1204   1.400       .  A
C1199      H1206   1.084       .  S
C1200      C1201   1.414       .  A
C1201      C1202   1.390       .  A
C1201      N1208   1.437       .  S
C1202      C1203   1.403       .  A
C1202      H1207   1.084       .  S
C1203      C1204   1.419       .  A
C1204      N1205   1.438       .  S
N1205      H1209   1.046       .  S
N1205      H1210   1.045       .  S
N1208      H1211   1.044   1_455  S
N1208      H1212   1.045   1_455  S
C1213      C1214   1.416       .  A
C1213      C1218   1.421       .  A
C1213      H1220   1.079   1_455  S
C1214      C1215   1.430       .  A
C1215      C1216   1.427       .  A
C1215      N1222   1.431       .  S
C1216      C1217   1.410       .  A
C1216      H1221   1.084       .  S
C1217      C1218   1.423       .  A
C1218      N1219   1.439       .  S
N1219      H1223   1.045       .  S
N1219      H1224   1.046       .  S
N1222      H1225   1.046       .  S
N1222      H1226   1.046       .  S
C1227      C1228   1.405       .  A
C1227      C1232   1.410       .  A
C1227      H1234   1.084       .  S
C1228      C1229   1.405       .  A
C1229      C1230   1.395       .  A
C1229      N1236   1.434       .  S
C1230      C1231   1.402       .  A
C1230      H1235   1.084       .  S
C1231      C1232   1.413       .  A
C1232      N1233   1.437       .  S
N1233      H1237   1.046       .  S
N1233      H1238   1.045       .  S
N1236      H1239   1.046       .  S
N1236      H1240   1.044       .  S
C1241      C1242   1.406       .  A
C1241      C1246   1.397       .  A
C1241      H1248   1.084       .  S
C1242      C1243   1.410       .  A
C1243      C1244   1.404       .  A
C1243      N1250   1.437       .  S
C1244      C1245   1.408       .  A
C1244      H1249   1.084       .  S
C1245      C1246   1.406       .  A
C1246      N1247   1.439       .  S
N1247      H1251   1.046       .  S
N1247      H1252   1.045       .  S
N1250      H1253   1.044       .  S
N1250      H1254   1.046       .  S
C1255      C1256   1.416   1_556  A
C1255      C1260   1.418       .  A
C1255      H1262   1.083       .  S
C1256      C1257   1.429       .  A
C1257      C1258   1.407       .  A
C1257      N1264   1.430       .  S
C1258      C1259   1.406       .  A
C1258      H1263   1.082       .  S
C1259      C1260   1.414   1_554  A
C1260      N1261   1.437       .  S
N1261      H1265   1.045       .  S
N1261      H1266   1.046       .  S
N1264      H1267   1.044       .  S
N1264      H1268   1.043       .  S
C1269      C1270   1.403       .  A
C1269      C1274   1.414       .  A
C1269      H1276   1.084       .  S
C1270      C1271   1.418       .  A
C1271      C1272   1.395       .  A
C1271      N1278   1.439       .  S
C1272      C1273   1.399       .  A
C1272      H1277   1.078       .  S
C1273      C1274   1.421       .  A
C1274      N1275   1.438       .  S
N1275      H1279   1.046       .  S
N1275      H1280   1.045       .  S
N1278      H1281   1.044       .  S
N1278      H1282   1.045       .  S
C1283      C1284   1.405       .  A
C1283      C1288   1.397       .  A
C1283      H1290   1.085       .  S
C1284      C1285   1.409       .  A
C1285      C1286   1.397       .  A
C1285      N1292   1.438       .  S
C1286      C1287   1.401       .  A
C1286      H1291   1.075       .  S
C1287      C1288   1.411       .  A
C1288      N1289   1.439       .  S
N1289      H1293   1.046       .  S
N1289      H1294   1.043       .  S
N1292      H1295   1.044   1_545  S
N1292      H1296   1.045       .  S
C1297      C1298   1.411       .  A
C1297      C1302   1.407       .  A
C1297      H1304   1.084       .  S
C1298      C1299   1.409       .  A
C1299      C1300   1.397       .  A
C1299      N1306   1.434       .  S
C1300      C1301   1.404       .  A
C1300      H1305   1.085       .  S
C1301      C1302   1.416       .  A
C1302      N1303   1.438       .  S
N1303      H1307   1.046       .  S
N1303      H1308   1.042       .  S
N1306      H1309   1.046       .  S
N1306      H1310   1.046       .  S
C1311      C1312   1.397       .  A
C1311      C1316   1.393       .  A
C1311      H1318   1.085       .  S
C1312      C1313   1.414       .  A
C1313      C1314   1.397       .  A
C1313      N1320   1.433       .  S
C1314      C1315   1.398       .  A
C1314      H1319   1.084       .  S
C1315      C1316   1.415       .  A
C1316      N1317   1.432       .  S
N1317      H1321   1.043       .  S
N1317      H1322   1.046   1_545  S
N1320      H1323   1.042       .  S
N1320      H1324   1.045       .  S
C1325      C1326   1.397       .  A
C1325      C1330   1.391       .  A
C1325      H1332   1.084       .  S
C1326      C1327   1.413       .  A
C1327      C1328   1.401       .  A
C1327      N1334   1.433       .  S
C1328      C1329   1.404       .  A
C1328      H1333   1.083       .  S
C1329      C1330   1.417       .  A
C1330      N1331   1.434       .  S
N1331      H1335   1.046       .  S
N1331      H1336   1.045       .  S
N1334      H1337   1.044       .  S
N1334      H1338   1.045       .  S
C1339      C1340   1.403       .  A
C1339      C1344   1.399       .  A
C1339      H1346   1.085       .  S
C1340      C1341   1.414       .  A
C1341      C1342   1.398       .  A
C1341      N1348   1.439       .  S
C1342      C1343   1.403       .  A
C1342      H1347   1.084       .  S
C1343      C1344   1.405       .  A
C1344      N1345   1.432       .  S
N1345      H1349   1.045       .  S
N1345      H1350   1.045       .  S
N1348      H1351   1.043       .  S
N1348      H1352   1.046       .  S
C1353      C1354   1.403       .  A
C1353      C1358   1.399       .  A
C1353      H1360   1.084       .  S
C1354      C1355   1.416       .  A
C1355      C1356   1.400       .  A
C1355      N1362   1.438       .  S
C1356      C1357   1.398       .  A
C1356      H1361   1.084       .  S
C1357      C1358   1.408       .  A
C1358      N1359   1.437       .  S
N1359      H1363   1.044       .  S
N1359      H1364   1.045       .  S
N1362      H1365   1.045       .  S
N1362      H1366   1.046       .  S
C1367      C1368   1.410       .  A
C1367      C1372   1.403       .  A
C1367      H1374   1.084       .  S
C1368      C1369   1.409       .  A
C1369      C1370   1.397       .  A
C1369      N1376   1.432       .  S
C1370      C1371   1.405       .  A
C1370      H1375   1.081       .  S
C1371      C1372   1.413       .  A
C1372      N1373   1.438       .  S
N1373      H1377   1.046       .  S
N1373      H1378   1.043       .  S
N1376      H1379   1.045       .  S
N1376      H1380   1.045       .  S
C1381      C1382   1.398       .  A
C1381      C1386   1.393       .  A
C1381      H1388   1.085       .  S
C1382      C1383   1.403       .  A
C1383      C1384   1.400       .  A
C1383      N1390   1.437       .  S
C1384      C1385   1.405       .  A
C1384      H1389   1.084       .  S
C1385      C1386   1.419       .  A
C1386      N1387   1.440       .  S
N1387      H1391   1.046       .  S
N1387      H1392   1.040       .  S
N1390      H1393   1.046       .  S
N1390      H1394   1.046       .  S
C1395      C1396   1.399       .  A
C1395      C1400   1.396       .  A
C1395      H1402   1.084       .  S
C1396      C1397   1.412       .  A
C1397      C1398   1.407       .  A
C1397      N1404   1.438       .  S
C1398      C1399   1.404       .  A
C1398      H1403   1.084       .  S
C1399      C1400   1.418       .  A
C1400      N1401   1.439       .  S
N1401      H1405   1.046       .  S
N1401      H1406   1.041       .  S
N1404      H1407   1.046       .  S
N1404      H1408   1.046       .  S
C1409      C1410   1.401       .  A
C1409      C1414   1.392       .  A
C1409      H1416   1.081       .  S
C1410      C1411   1.421       .  A
C1411      C1412   1.406       .  A
C1411      N1418   1.432       .  S
C1412      C1413   1.400       .  A
C1412      H1417   1.084       .  S
C1413      C1414   1.420       .  A
C1414      N1415   1.439       .  S
N1415      H1419   1.045       .  S
N1415      H1420   1.046       .  S
N1418      H1421   1.045       .  S
N1418      H1422   1.046       .  S
C1423      C1424   1.405       .  A
C1423      C1428   1.407       .  A
C1423      H1430   1.084       .  S
C1424      C1425   1.410       .  A
C1425      C1426   1.408       .  A
C1425      N1432   1.437       .  S
C1426      C1427   1.403       .  A
C1426      H1431   1.084       .  S
C1427      C1428   1.409       .  A
C1428      N1429   1.437       .  S
N1429      H1433   1.046       .  S
N1429      H1434   1.045       .  S
N1432      H1435   1.045       .  S
N1432      H1436   1.046       .  S
C1437      C1438   1.413       .  A
C1437      C1442   1.412       .  A
C1437      H1444   1.083       .  S
C1438      C1439   1.408       .  A
C1439      C1440   1.390       .  A
C1439      N1446   1.438       .  S
C1440      C1441   1.404       .  A
C1440      H1445   1.080       .  S
C1441      C1442   1.408       .  A
C1442      N1443   1.437       .  S
N1443      H1447   1.046       .  S
N1443      H1448   1.045       .  S
N1446      H1449   1.044       .  S
N1446      H1450   1.046       .  S
C1451      C1452   1.399       .  A
C1451      C1456   1.396       .  A
C1451      H1458   1.085   1_565  S
C1452      C1453   1.419       .  A
C1453      C1454   1.402       .  A
C1453      N1460   1.438       .  S
C1454      C1455   1.400       .  A
C1454      H1459   1.084       .  S
C1455      C1456   1.410       .  A
C1456      N1457   1.437       .  S
N1457      H1461   1.046   1_565  S
N1457      H1462   1.046       .  S
N1460      H1463   1.041       .  S
N1460      H1464   1.046       .  S
C1465      C1466   1.403       .  A
C1465      C1470   1.396       .  A
C1465      H1472   1.085       .  S
C1466      C1467   1.419       .  A
C1467      C1468   1.405       .  A
C1467      N1474   1.438       .  S
C1468      C1469   1.403       .  A
C1468      H1473   1.084       .  S
C1469      C1470   1.412       .  A
C1470      N1471   1.440       .  S
N1471      H1475   1.046       .  S
N1471      H1476   1.043       .  S
N1474      H1477   1.044       .  S
N1474      H1478   1.046       .  S
C1479      C1480   1.398       .  A
C1479      C1484   1.400       .  A
C1479      H1486   1.084       .  S
C1480      C1481   1.408       .  A
C1481      C1482   1.411       .  A
C1481      N1488   1.438       .  S
C1482      C1483   1.410       .  A
C1482      H1487   1.084       .  S
C1483      C1484   1.422       .  A
C1484      N1485   1.439       .  S
N1485      H1489   1.046       .  S
N1485      H1490   1.039       .  S
N1488      H1491   1.044       .  S
N1488      H1492   1.045       .  S
C1493      C1494   1.399       .  A
C1493      C1498   1.400       .  A
C1493      H1500   1.083       .  S
C1494      C1495   1.421       .  A
C1495      C1496   1.409       .  A
C1495      N1502   1.437       .  S
C1496      C1497   1.402       .  A
C1496      H1501   1.083       .  S
C1497      C1498   1.426       .  A
C1498      N1499   1.440       .  S
N1499      H1503   1.046       .  S
N1499      H1504   1.042       .  S
N1502      H1505   1.045       .  S
N1502      H1506   1.046       .  S
C1507      C1508   1.408       .  A
C1507      C1512   1.406       .  A
C1507      H1514   1.081       .  S
C1508      C1509   1.407       .  A
C1509      C1510   1.399       .  A
C1509      N1516   1.439       .  S
C1510      C1511   1.414       .  A
C1510      H1515   1.083       .  S
C1511      C1512   1.409       .  A
C1512      N1513   1.431       .  S
N1513      H1517   1.045       .  S
N1513      H1518   1.046       .  S
N1516      H1519   1.045       .  S
N1516      H1520   1.046       .  S
C1521      C1522   1.401       .  A
C1521      C1526   1.393       .  A
C1521      H1528   1.085       .  S
C1522      C1523   1.411       .  A
C1523      C1524   1.401       .  A
C1523      N1530   1.438       .  S
C1524      C1525   1.404       .  A
C1524      H1529   1.084       .  S
C1525      C1526   1.403       .  A
C1526      N1527   1.436       .  S
N1527      H1531   1.046       .  S
N1527      H1532   1.042       .  S
N1530      H1533   1.044       .  S
N1530      H1534   1.046       .  S
C1535      C1536   1.401       .  A
C1535      C1540   1.411       .  A
C1535      H1542   1.084       .  S
C1536      C1537   1.408       .  A
C1537      C1538   1.396       .  A
C1537      N1544   1.435       .  S
C1538      C1539   1.398       .  A
C1538      H1543   1.084       .  S
C1539      C1540   1.417       .  A
C1540      N1541   1.437       .  S
N1541      H1545   1.046       .  S
N1541      H1546   1.045       .  S
N1544      H1547   1.041       .  S
N1544      H1548   1.045       .  S
