geometry optimzed in LAMMPS
_audit_creation_date              2020-11-30 
_audit_creation_method            'lammps2cif' 
_symmetry_space_group_name_H-M    'P1' 
_symmetry_Int_Tables_number       1 
_symmetry_cell_setting            triclinic 
loop_ 
_symmetry_equiv_pos_as_xyz 
  x,y,z 
_cell_length_a                    28.79430687 
_cell_length_b                    28.79055325698497 
_cell_length_c                    26.916631199277724 
_cell_angle_alpha                 89.83705996831384 
_cell_angle_beta                  89.8478309633907 
_cell_angle_gamma                 89.95687019781907 
loop_ 
_atom_site_label 
_atom_site_type_symbol 
_atom_site_fract_x 
_atom_site_fract_y 
_atom_site_fract_z 
_atom_site_charge 
O1          O  0.49998613  0.79408836  0.42666468    -0.72300
O2          O  0.49808891  0.79741064  0.07590570    -0.73300
O3          O  0.42965918  0.79586813  0.00078460    -0.61900
O4          O  0.57073837  0.79452480  0.50053049    -0.70300
O5          O  0.56922541  0.87173982  0.50061027    -0.69900
O6          O  0.42873067  0.87309627  0.00017195    -0.61100
O7          O  0.49755276  0.87459379  0.07525155    -0.73700
O8          O  0.49831500  0.87122439  0.42732930    -0.72400
Cu9        Cu  0.49924508  0.79404909  0.00168363     1.04600
Cu10       Cu  0.49954280  0.87316749  0.50173497     1.04300
C11         C  0.49851888  0.83292247  0.40354508     0.93900
C12         C  0.49752154  0.83610077  0.09896718     0.90600
C13         C  0.40889349  0.82995959  0.50250973     0.85200
C14         C  0.59019961  0.83617288  0.00231963     0.91400
O15         O  0.42673498  0.87352351  0.25105573    -0.72300
O16         O  0.56594745  0.87418246  0.25130882    -0.73300
O17         O  0.49664101  0.87456195  0.17686173    -0.61900
O18         O  0.49642970  0.87255440  0.32605704    -0.70300
O19         O  0.49710888  0.79540685  0.32517869    -0.69900
O20         O  0.49702058  0.79738031  0.17651307    -0.61100
O21         O  0.56660236  0.79695691  0.25041928    -0.73700
O22         O  0.42716302  0.79630756  0.25051228    -0.72400
Cu23       Cu  0.49637758  0.87644026  0.25142112     1.04600
Cu24       Cu  0.49693557  0.79381507  0.25067869     1.04300
C25         C  0.40515820  0.83483353  0.25022475     0.93900
C26         C  0.58803762  0.83575542  0.25062392     0.93000
C27         C  0.49698642  0.83611223  0.15329634     0.85200
C28         C  0.49721432  0.83365424  0.34907426     0.91400
O29         O  0.77007213  0.67194382  0.00074337    -0.72300
O30         O  0.77599296  0.53398544  0.49877647    -0.73300
O31         O  0.77552493  0.60483327  0.42546746    -0.61900
O32         O  0.76964110  0.60192264  0.07431882    -0.70300
O33         O  0.69247736  0.60272249  0.07502431    -0.69900
O34         O  0.69836222  0.60397002  0.42600639    -0.61100
O35         O  0.69159874  0.53330693  0.99996876    -0.73700
O36         O  0.69285878  0.67259161  0.00095100    -0.72400
Cu37       Cu  0.77822929  0.60360309  0.50012595     1.04600
Cu38       Cu  0.68955065  0.60294633  0.00045486     1.04300
C39         C  0.73162959  0.69405026  0.00146758     0.93900
C40         C  0.73002937  0.51121281  0.99906020     0.93000
C41         C  0.73681174  0.60456615  0.40233318     0.85200
C42         C  0.73123225  0.60263570  0.09807408     0.91400
O43         O  0.77426138  0.60483279  0.32368517    -0.72300
O44         O  0.77080636  0.60425385  0.17497512    -0.73300
O45         O  0.77174691  0.67448492  0.24889641    -0.61900
O46         O  0.77273720  0.53484186  0.24940222    -0.70300
O47         O  0.69553211  0.53472729  0.25150257    -0.69900
O48         O  0.69454853  0.67368152  0.25076927    -0.61100
O49         O  0.69365089  0.60375999  0.17665994    -0.73700
O50         O  0.69710816  0.60444098  0.32546497    -0.72400
Cu51       Cu  0.77514686  0.60465438  0.24917594     1.04600
Cu52       Cu  0.69253241  0.60416731  0.25120338     1.04300
C53         C  0.73611496  0.60468891  0.34797600     0.93900
C54         C  0.73183071  0.60357235  0.15242290     0.93000
C55         C  0.73286320  0.69586376  0.24980461     0.85200
C56         C  0.73413880  0.51301795  0.25025898     0.91400
O57         O  0.49688069  0.33071778  0.06920076    -0.72300
O58         O  0.50437150  0.32943160  0.42031644    -0.73300
O59         O  0.57409157  0.33094319  0.49509326    -0.61900
O60         O  0.42708367  0.33058542  0.99537600    -0.70300
O61         O  0.42669399  0.40782403  0.99522293    -0.69900
O62         O  0.57249812  0.40814164  0.49439490    -0.61100
O63         O  0.50226088  0.40657228  0.42021549    -0.73700
O64         O  0.49659920  0.40790692  0.06908540    -0.72400
Cu65       Cu  0.50454053  0.32662174  0.49491854     1.04600
Cu66       Cu  0.49638688  0.41067292  0.99473621     1.04300
C67         C  0.49701696  0.36928280  0.09252374     0.93900
C68         C  0.50274039  0.36804072  0.39684106     0.93000
C69         C  0.58788369  0.36930304  0.99525438     0.85200
C70         C  0.41234832  0.36549384  0.49556721     0.91400
O71         O  0.50132186  0.32974194  0.31894443    -0.72300
O72         O  0.49896009  0.33051118  0.17017104    -0.73300
O73         O  0.56969151  0.33180466  0.24340043    -0.61900
O74         O  0.43031160  0.32847264  0.24565046    -0.70300
O75         O  0.42871493  0.40567188  0.24557549    -0.69900
O76         O  0.56808739  0.40901537  0.24377337    -0.61100
O77         O  0.49753457  0.40768202  0.17026180    -0.73700
O78         O  0.49949652  0.40689004  0.31911289    -0.72400
Cu79       Cu  0.50011828  0.32742923  0.24449082     1.04600
Cu80       Cu  0.49835880  0.41004176  0.24465402     1.04300
C81         C  0.50114602  0.36821718  0.34244544     0.93900
C82         C  0.49783967  0.36917131  0.14683368     0.93000
C83         C  0.59066791  0.37085088  0.24371639     0.85200
C84         C  0.40770441  0.36662987  0.24578306     0.91400
O85         O  0.22992855  0.59541797  0.42592903    -0.72300
O86         O  0.22460842  0.59976968  0.07514106    -0.73300
O87         O  0.22511190  0.67049701  0.00164368    -0.61900
O88         O  0.22998532  0.52567867  0.50060449    -0.70300
O89         O  0.30717989  0.52605538  0.50068902    -0.69900
O90         O  0.30233008  0.66947274  0.00121960    -0.61100
O91         O  0.30175837  0.59880936  0.07426679    -0.73700
O92         O  0.30710525  0.59583966  0.42560599    -0.72400
Cu93       Cu  0.22146059  0.60088698  0.00049551     1.04600
Cu94       Cu  0.30954514  0.59591404  0.50012071     1.04300
C95         C  0.26846399  0.59632084  0.40239620     0.93900
C96         C  0.26340530  0.59934974  0.09813615     0.93000
C97         C  0.26760037  0.68694035  0.49887407     0.85200
C98         C  0.26869321  0.50403227  0.50054399     0.91400
O99         O  0.22595015  0.59986656  0.17682077    -0.72300
O100        O  0.22908023  0.59862321  0.32550176    -0.73300
O101        O  0.22686290  0.66917129  0.25177113    -0.61900
O102        O  0.22811631  0.53008210  0.25112924    -0.70300
O103        O  0.30535328  0.53051916  0.24969306    -0.69900
O104        O  0.30404796  0.66984263  0.24952982    -0.61100
O105        O  0.30624474  0.59945453  0.32401250    -0.73700
O106        O  0.30309770  0.60008328  0.17514254    -0.72400
Cu107      Cu  0.22480725  0.59949342  0.25138070     1.04600
Cu108      Cu  0.30743031  0.60008653  0.24951450     1.04300
C109        C  0.26411133  0.59974648  0.15255477     0.93900
C110        C  0.26800292  0.59820456  0.34812054     0.93000
C111        C  0.26523762  0.69130580  0.25063439     0.85200
C112        C  0.26686986  0.50858440  0.25059434     0.91400
O113        O  0.73241432  0.76551243  0.04468461    -0.72300
O114        O  0.72951434  0.90500990  0.04794610    -0.73300
O115        O  0.66161812  0.83410145  0.04498259    -0.61900
O116        O  0.80084741  0.83695401  0.04811355    -0.70300
O117        O  0.80223006  0.83698735  0.45489905    -0.69900
O118        O  0.66349570  0.83601841  0.45852147    -0.61100
O119        O  0.73239884  0.90640998  0.45676028    -0.73700
O120        O  0.73344082  0.76686517  0.45813778    -0.72400
Cu121      Cu  0.73105168  0.83529345  0.04938808     1.04600
Cu122      Cu  0.73282426  0.83657697  0.45420727     1.04300
C123        C  0.73196014  0.74465809  0.00284506     0.93900
C124        C  0.73232087  0.92759055  0.00711384     0.93000
C125        C  0.64075663  0.83637847  0.00328570     0.85200
C126        C  0.82362645  0.83596962  0.00731980     0.91400
O127        O  0.73119389  0.76819106  0.29101177    -0.72300
O128        O  0.72902045  0.90751372  0.29035587    -0.73300
O129        O  0.66050015  0.83688861  0.29128515    -0.61900
O130        O  0.79949321  0.83857627  0.29049784    -0.70300
O131        O  0.79949259  0.83905908  0.20824976    -0.69900
O132        O  0.66021803  0.83646177  0.20868444    -0.61100
O133        O  0.72834545  0.90759289  0.20807583    -0.73700
O134        O  0.73151899  0.76827967  0.20841264    -0.72400
Cu135      Cu  0.73003623  0.83784763  0.29364902     1.04600
Cu136      Cu  0.72987557  0.83789603  0.20544636     1.04300
C137        C  0.73198356  0.74645967  0.24974461     0.93900
C138        C  0.72829499  0.92971746  0.24917112     0.93000
C139        C  0.63859639  0.83629661  0.25015707     0.85200
C140        C  0.82165890  0.83858203  0.24933648     0.91400
O141        O  0.80746479  0.36824315  0.45726928    -0.72300
O142        O  0.66823378  0.37164880  0.45494707    -0.73300
O143        O  0.73925423  0.43998182  0.45667224    -0.61900
O144        O  0.73642256  0.30056831  0.45618752    -0.70300
O145        O  0.72994040  0.30038559  0.04150991    -0.69900
O146        O  0.72810891  0.43901912  0.04005769    -0.61100
O147        O  0.65922623  0.36901235  0.03853859    -0.73700
O148        O  0.79884292  0.37090725  0.04161805    -0.72400
Cu149      Cu  0.73791979  0.37021289  0.45335881     1.04600
Cu150      Cu  0.72893766  0.36981743  0.04329624     1.04300
C151        C  0.82140931  0.36957338  0.00065981     0.93900
C152        C  0.63844208  0.36922405  0.99666039     0.93000
C153        C  0.72966288  0.46065984  0.99873563     0.85200
C154        C  0.73031060  0.27749805  0.00095318     0.91400
O155        O  0.80342355  0.37075167  0.21026773    -0.72300
O156        O  0.66443966  0.37166588  0.20478951    -0.73300
O157        O  0.73471136  0.44107185  0.20824325    -0.61900
O158        O  0.73408077  0.30166737  0.20718688    -0.70300
O159        O  0.72966595  0.30129206  0.28957595    -0.69900
O160        O  0.73230309  0.44029383  0.29081538    -0.61100
O161        O  0.66157948  0.37188598  0.28734852    -0.73700
O162        O  0.80071354  0.36952924  0.29255442    -0.72400
Cu163      Cu  0.73423688  0.37137202  0.20470500     1.04600
Cu164      Cu  0.73097930  0.37075874  0.29295330     1.04300
C165        C  0.82414315  0.36969330  0.25214934     0.93900
C166        C  0.64124238  0.37170636  0.24527143     0.93000
C167        C  0.73390615  0.46244775  0.24974119     0.85200
C168        C  0.73163295  0.27954634  0.24833451     0.91400
O169        O  0.26661854  0.29699962  0.04054304    -0.72300
O170        O  0.26171508  0.43626464  0.03988473    -0.73300
O171        O  0.19414986  0.36449067  0.04132272    -0.61900
O172        O  0.33351822  0.36888201  0.03860082    -0.70300
O173        O  0.33945377  0.36323607  0.45604256    -0.69900
O174        O  0.20077000  0.36105813  0.45920460    -0.61100
O175        O  0.26911791  0.43195364  0.45849942    -0.73700
O176        O  0.27076742  0.29241452  0.45737420    -0.72400
Cu177      Cu  0.26398389  0.36664094  0.04299821     1.04600
Cu178      Cu  0.26999161  0.36217866  0.45491571     1.04300
C179        C  0.27256125  0.27004756  0.49842019     0.93900
C180        C  0.26897785  0.45331481  0.50002405     0.93000
C181        C  0.17897635  0.35948460  0.50054713     0.85200
C182        C  0.36189069  0.36406194  0.49681350     0.91400
O183        O  0.26720283  0.43571966  0.29122260    -0.72300
O184        O  0.26510010  0.29637876  0.28834682    -0.73300
O185        O  0.33594534  0.36523588  0.28839218    -0.61900
O186        O  0.19688815  0.36672333  0.29215688    -0.70300
O187        O  0.19500669  0.36993454  0.20978575    -0.69900
O188        O  0.33451968  0.36629587  0.20582947    -0.61100
O189        O  0.26262725  0.29842522  0.20616002    -0.73700
O190        O  0.26639002  0.43711006  0.20860544    -0.72400
Cu191      Cu  0.26641555  0.36594307  0.29293134     1.04600
Cu192      Cu  0.26463147  0.36794180  0.20470989     1.04300
C193        C  0.26700989  0.45812946  0.25020437     0.93900
C194        C  0.26285168  0.27526028  0.24669960     0.93000
C195        C  0.35704301  0.36578149  0.24665384     0.85200
C196        C  0.17397059  0.36871895  0.25166065     0.91400
O197        O  0.26603910  0.90317339  0.04388783    -0.72300
O198        O  0.26574319  0.76378341  0.04363160    -0.73300
O199        O  0.33550184  0.83349576  0.04266877    -0.61900
O200        O  0.19639666  0.83361050  0.04500647    -0.70300
O201        O  0.19867915  0.82896642  0.45314394    -0.69900
O202        O  0.33796225  0.82843493  0.45890003    -0.61100
O203        O  0.26837372  0.75892356  0.45666523    -0.73700
O204        O  0.26880288  0.89819977  0.45563727    -0.72400
Cu205      Cu  0.26595106  0.83347222  0.04669985     1.04600
Cu206      Cu  0.26852805  0.82855466  0.45317027     1.04300
C207        C  0.26736147  0.92032999  0.49671025     0.93900
C208        C  0.26716609  0.73743074  0.49819394     0.93000
C209        C  0.35830337  0.82901913  0.50096963     0.85200
C210        C  0.17503798  0.82927318  0.49340775     0.91400
O211        O  0.26243026  0.76446233  0.29051355    -0.72300
O212        O  0.26314225  0.90392757  0.28678048    -0.73300
O213        O  0.19320543  0.83488986  0.28794996    -0.61900
O214        O  0.33213269  0.83399225  0.29010105    -0.70300
O215        O  0.33334223  0.83491143  0.20751021    -0.69900
O216        O  0.19369319  0.82965874  0.20563585    -0.61100
O217        O  0.26052822  0.90219273  0.20435952    -0.73700
O218        O  0.26609186  0.76300254  0.20801352    -0.72400
Cu219      Cu  0.26266102  0.83436036  0.29170207     1.04600
Cu220      Cu  0.26349106  0.83241448  0.20342563     1.04300
C221        C  0.26463645  0.74194042  0.24975419     0.93900
C222        C  0.26141099  0.92502073  0.24498749     0.93000
C223        C  0.17151486  0.83206288  0.24674948     0.85200
C224        C  0.35453099  0.83462346  0.24918030     0.91400
C225        C  0.22932420  0.04872041  0.21134536     0.13300
C226        C  0.25852797  0.07412766  0.24304837     0.00200
C227        C  0.28894510  0.05012772  0.27485009     0.15200
C228        C  0.28967691  0.00161546  0.27554499     0.24600
C229        C  0.26062815  0.97621117  0.24379951    -0.41700
C230        C  0.23063467  0.00010526  0.21144574     0.31700
C231        C  0.25744476  0.12559534  0.24331952     0.00300
F232        F  0.31863005  0.07377159  0.30461945    -0.14000
F233        F  0.20128354  0.97634211  0.18142573    -0.14500
C234        C  0.24917027  0.14965188  0.28777164     0.15200
C235        C  0.25075617  0.19814572  0.28889928     0.24600
C236        C  0.26032730  0.22374516  0.24535270    -0.41600
C237        C  0.26723334  0.19946323  0.20048425     0.31600
C238        C  0.26602707  0.15091719  0.19961651     0.13300
F239        F  0.23910583  0.12604531  0.33015025    -0.14000
F240        F  0.27607848  0.22250358  0.15745621    -0.14500
F241        F  0.24236022  0.21991706  0.33263704    -0.16800
F242        F  0.27461938  0.12855387  0.15627781    -0.15400
F243        F  0.19858397  0.07097267  0.18140510    -0.15400
F244        F  0.31976541  0.97941763  0.30627335    -0.16800
C245        C  0.24502713  0.14592791  0.46364610     0.13300
C246        C  0.27224802  0.12096595  0.49767804     0.00200
C247        C  0.29682549  0.15125154  0.03485740     0.15200
C248        C  0.29552260  0.19983876  0.03441084     0.24600
C249        C  0.27279707  0.21879524  0.49807382    -0.41700
C250        C  0.24538576  0.19446248  0.46371889     0.31700
C251        C  0.27148671  0.06968548  0.49760782     0.00300
F252        F  0.32480336  0.12894625  0.06771544    -0.14000
F253        F  0.21747630  0.21769982  0.43157455    -0.14500
C254        C  0.28727357  0.04502532  0.45594558     0.15200
C255        C  0.28580468  0.99650175  0.45546113     0.24600
C256        C  0.26842528  0.97176825  0.49678061    -0.41600
C257        C  0.24875187  0.00208089  0.04220915     0.31600
C258        C  0.24992141  0.05062726  0.04183055     0.13300
F259        F  0.30491461  0.06802742  0.41604592    -0.14000
F260        F  0.22733269  0.97998467  0.08051430    -0.14500
F261        F  0.30242799  0.97382528  0.41498317    -0.16800
F262        F  0.22973647  0.07439481  0.07962354    -0.15400
F263        F  0.21707167  0.12316644  0.43131713    -0.15400
F264        F  0.32262772  0.22364998  0.06672050    -0.16800
C265        C  0.05005203  0.34328514  0.29026134     0.13300
C266        C  0.02490460  0.36948696  0.25536773     0.00200
C267        C  0.04902216  0.39606052  0.21982324     0.15200
C268        C  0.09753925  0.39584646  0.21862089     0.24600
C269        C  0.12276247  0.36943104  0.25332132    -0.41700
C270        C  0.09861270  0.34346274  0.28945166     0.31700
C271        C  0.97353936  0.36851641  0.25527669     0.00300
F272        F  0.02549278  0.42274806  0.18666594    -0.14000
F273        F  0.12198627  0.31688837  0.32283706    -0.14500
C274        C  0.94820871  0.38259366  0.29727568     0.15200
C275        C  0.89965931  0.38244120  0.29664354     0.24600
C276        C  0.87553891  0.36867398  0.25363160    -0.41600
C277        C  0.90115007  0.35422041  0.21172179     0.31600
C278        C  0.94960934  0.35390521  0.21274955     0.13300
F279        F  0.97049994  0.39778683  0.33847275    -0.14000
F280        F  0.87943747  0.33957119  0.16986775    -0.14500
F281        F  0.87642503  0.39704155  0.33770511    -0.16800
F282        F  0.97327594  0.33858871  0.17233859    -0.15400
F283        F  0.02754452  0.31641396  0.32414995    -0.15400
F284        F  0.11986885  0.42239434  0.18430838    -0.16800
C285        C  0.05406529  0.37069318  0.45753772     0.13300
C286        C  0.02926049  0.35885840  0.50068562     0.00200
C287        C  0.04633227  0.35406533  0.04369854     0.15200
C288        C  0.09490505  0.35292329  0.04370852     0.24600
C289        C  0.12742308  0.35857356  0.50068155    -0.41700
C290        C  0.10253311  0.37046003  0.45738061     0.31700
C291        C  0.97785724  0.36064153  0.50083473     0.00300
F292        F  0.02295946  0.34043674  0.08504620    -0.14000
F293        F  0.12490064  0.38308481  0.41496561    -0.14500
C294        C  0.95222403  0.33413591  0.46676268     0.15200
C295        C  0.90376540  0.33712103  0.46575117     0.24600
C296        C  0.87264517  0.36942408  0.00091231    -0.41600
C297        C  0.89734794  0.39613382  0.03560468     0.31600
C298        C  0.94594647  0.39609972  0.03536863     0.13300
F299        F  0.97413662  0.30475493  0.43501216    -0.14000
F300        F  0.87445482  0.42343932  0.06865543    -0.14500
F301        F  0.87988525  0.31057028  0.43294956    -0.16800
F302        F  0.96902178  0.42344712  0.06806739    -0.15400
F303        F  0.03129503  0.38388885  0.41575940    -0.15400
F304        F  0.11706041  0.33863906  0.08552287    -0.16800
C305        C  0.04686587  0.80027493  0.21863619     0.13300
C306        C  0.02259385  0.83217767  0.24846883     0.00200
C307        C  0.04755056  0.86390915  0.27754556     0.15200
C308        C  0.09606192  0.86362510  0.27708876     0.24600
C309        C  0.12038070  0.83205142  0.24695376    -0.41700
C310        C  0.09547045  0.80042337  0.21761321     0.31700
C311        C  0.97124718  0.83311504  0.24868197     0.00300
F312        F  0.02482989  0.89602116  0.30534772    -0.14000
F313        F  0.11821277  0.76871704  0.18928913    -0.14500
C314        C  0.94644580  0.82522472  0.29283411     0.15200
C315        C  0.89795040  0.82750815  0.29331159     0.24600
C316        C  0.87321648  0.83730883  0.24929168    -0.41600
C317        C  0.89840871  0.84498020  0.20503858     0.31600
C318        C  0.94688107  0.84314356  0.20492176     0.13300
F319        F  0.96925550  0.81458944  0.33541675    -0.14000
F320        F  0.87633458  0.85491894  0.16183324    -0.14500
F321        F  0.87539219  0.81939031  0.33682391    -0.16800
F322        F  0.97018435  0.85237142  0.16222149    -0.15400
F323        F  0.02344379  0.76844244  0.19129465    -0.15400
F324        F  0.11933191  0.89527090  0.30482145    -0.16800
C325        C  0.74129687  0.05475032  0.29152981     0.13300
C326        C  0.72819745  0.07938329  0.24881011     0.00200
C327        C  0.71438204  0.05490284  0.20637716     0.15200
C328        C  0.71412486  0.00631518  0.20642816     0.24600
C329        C  0.72769502  0.98129727  0.24912785    -0.41700
C330        C  0.74103583  0.00621067  0.29179272     0.31700
C331        C  0.72904841  0.13068017  0.24856353     0.00300
F332        F  0.70028100  0.07819388  0.16519895    -0.14000
F333        F  0.75488819  0.98371178  0.33354254    -0.14500
C334        C  0.75970314  0.15470351  0.21699387     0.15200
C335        C  0.76042874  0.20327403  0.21666678     0.24600
C336        C  0.73085219  0.22841854  0.24835953    -0.41600
C337        C  0.70064859  0.20431955  0.28042317     0.31600
C338        C  0.69959517  0.15579238  0.28032838     0.13300
F339        F  0.78983409  0.13101287  0.18759062    -0.14000
F340        F  0.67120376  0.22782047  0.31079903    -0.14500
F341        F  0.79122742  0.22572540  0.18681972    -0.16800
F342        F  0.66925738  0.13323956  0.31061028    -0.15400
F343        F  0.75532147  0.07784687  0.33271461    -0.15400
F344        F  0.69975472  0.98389537  0.16496553    -0.16800
C345        C  0.94785432  0.86607527  0.03924104     0.13300
C346        C  0.97256595  0.83563944  0.00808606     0.00200
C347        C  0.94844901  0.80727196  0.46140245     0.15200
C348        C  0.89991602  0.80783157  0.46305824     0.24600
C349        C  0.87474449  0.83566508  0.00812341    -0.41700
C350        C  0.89924234  0.86593463  0.03942893     0.31700
C351        C  0.02396189  0.83585444  0.00736966     0.00300
F352        F  0.97044685  0.77414179  0.43431840    -0.14000
F353        F  0.87609560  0.89672494  0.06852384    -0.14500
C354        C  0.04916740  0.82550322  0.05054215     0.15200
C355        C  0.09770489  0.82523043  0.04971762     0.24600
C356        C  0.12343013  0.83081160  0.49164646    -0.41600
C357        C  0.10000455  0.84299363  0.44745274     0.31600
C358        C  0.05147706  0.84607375  0.44662232     0.13300
F359        F  0.02672205  0.81439156  0.09328986    -0.14000
F360        F  0.12391906  0.85286801  0.40519266    -0.14500
F361        F  0.12060413  0.81476370  0.09232940    -0.16800
F362        F  0.02987401  0.85888940  0.40400030    -0.15400
F363        F  0.97083707  0.89692452  0.06823636    -0.15400
F364        F  0.87586653  0.77538450  0.43719469    -0.16800
C365        C  0.75890567  0.05281261  0.46402271     0.13300
C366        C  0.73188834  0.07753178  0.49850785     0.00200
C367        C  0.70151465  0.05194406  0.03768635     0.15200
C368        C  0.70168401  0.00335816  0.03813502     0.24600
C369        C  0.73275530  0.97870024  0.00768778    -0.41700
C370        C  0.75807856  0.00432368  0.46347187     0.31700
C371        C  0.73269557  0.12886671  0.49851514     0.00300
F372        F  0.66988581  0.07509416  0.06575624    -0.14000
F373        F  0.78579486  0.98131738  0.43092305    -0.14500
C374        C  0.71921676  0.15369080  0.45596168     0.15200
C375        C  0.72080533  0.20219006  0.45536148     0.24600
C376        C  0.73087568  0.22590581  0.00254431    -0.41600
C377        C  0.74088858  0.20210562  0.04719714     0.31600
C378        C  0.74145317  0.15356419  0.04863342     0.13300
F379        F  0.70369300  0.13086381  0.41518766    -0.14000
F380        F  0.75091923  0.22562949  0.08945068    -0.14500
F381        F  0.70687194  0.22487461  0.41370013    -0.16800
F382        F  0.75226723  0.13160882  0.09173784    -0.15400
F383        F  0.78722053  0.07571943  0.43187319    -0.15400
F384        F  0.67012256  0.98038012  0.06655540    -0.16800
O385        O  0.50044377  0.79627662  0.92733054    -0.72300
O386        O  0.50230875  0.79284483  0.57598728    -0.73300
O387        O  0.43145710  0.79179152  0.50232157    -0.61900
O388        O  0.56874527  0.79741404  0.00270121    -0.70300
O389        O  0.56812839  0.87464238  0.00142494    -0.69900
O390        O  0.42990242  0.86899634  0.50291969    -0.61100
O391        O  0.50102765  0.87001080  0.57591960    -0.73700
O392        O  0.49945933  0.87345432  0.92642255    -0.72400
Cu393      Cu  0.50116302  0.79055770  0.50136912     1.04600
Cu394      Cu  0.49840703  0.87669559  0.00076292     1.04300
C395        C  0.50053606  0.83468671  0.90349593     0.93900
C396        C  0.50252045  0.83143051  0.59934335     0.90600
C397        C  0.40742654  0.83421147  0.00047125     0.85200
C398        C  0.59175378  0.83353661  0.50065023     0.91400
O399        O  0.43465419  0.87214488  0.74955626    -0.72300
O400        O  0.57369915  0.87152068  0.75201413    -0.73300
O401        O  0.50485620  0.87057808  0.67650814    -0.61900
O402        O  0.50271925  0.87258541  0.82522911    -0.70300
O403        O  0.50248424  0.79540547  0.82638878    -0.69900
O404        O  0.50447678  0.79340360  0.67764129    -0.61100
O405        O  0.57354146  0.79430885  0.75331598    -0.73700
O406        O  0.43408105  0.79490805  0.75102513    -0.72400
Cu407      Cu  0.50408534  0.87440456  0.75078283     1.04600
Cu408      Cu  0.50372372  0.79176407  0.75214313     1.04300
C409        C  0.41263693  0.83371970  0.74977635     0.93900
C410        C  0.59541742  0.83288719  0.75319381     0.93000
C411        C  0.50418050  0.83174712  0.65367795     0.85200
C412        C  0.50197648  0.83424171  0.84918865     0.91400
O413        O  0.77525688  0.67333099  0.50117952    -0.72300
O414        O  0.76882201  0.53262724  0.99933121    -0.73300
O415        O  0.76944191  0.60241522  0.92589103    -0.61900
O416        O  0.77507025  0.60204878  0.57484928    -0.70300
O417        O  0.69791854  0.60225303  0.57441350    -0.69900
O418        O  0.69227254  0.60297514  0.92585954    -0.61100
O419        O  0.69877109  0.53359250  0.49942323    -0.73700
O420        O  0.69805407  0.67293695  0.50045215    -0.72400
Cu421      Cu  0.77218034  0.60221642  0.00005548     1.04600
Cu422      Cu  0.69561120  0.60321681  0.50012636     1.04300
C423        C  0.73653482  0.69493836  0.50061499     0.93900
C424        C  0.73751696  0.51202581  0.49864721     0.93000
C425        C  0.73096704  0.60212788  0.90248520     0.85200
C426        C  0.73627837  0.60146707  0.59806277     0.91400
O427        O  0.77039971  0.59903010  0.82533601    -0.72300
O428        O  0.77366281  0.59891165  0.67653748    -0.73300
O429        O  0.77359125  0.66813803  0.75100413    -0.61900
O430        O  0.77055422  0.52900151  0.75129693    -0.70300
O431        O  0.69336730  0.53045728  0.75037170    -0.69900
O432        O  0.69638577  0.66979737  0.74940101    -0.61100
O433        O  0.69652734  0.60020841  0.67528799    -0.73700
O434        O  0.69325859  0.60083403  0.82420914    -0.72400
Cu435      Cu  0.77474198  0.59861045  0.75107113     1.04600
Cu436      Cu  0.69214165  0.60029884  0.74969981     1.04300
C437        C  0.73146615  0.60059761  0.84816060     0.93900
C438        C  0.73550828  0.60004869  0.65248246     0.93000
C439        C  0.73544672  0.69069173  0.75042238     0.85200
C440        C  0.73157065  0.50792565  0.75114878     0.91400
O441        O  0.50390801  0.32949040  0.56940593    -0.72300
O442        O  0.49635642  0.33086681  0.92046209    -0.73300
O443        O  0.56615597  0.33070046  0.99479203    -0.61900
O444        O  0.43507752  0.32746306  0.49508040    -0.70300
O445        O  0.43305856  0.40468734  0.49516008    -0.69900
O446        O  0.56608554  0.40793502  0.99471679    -0.61100
O447        O  0.49626446  0.40804214  0.92026300    -0.73700
O448        O  0.50251262  0.40665702  0.56894872    -0.72400
Cu449      Cu  0.49659917  0.32802190  0.99488589     1.04600
Cu450      Cu  0.50260657  0.40923798  0.49460905     1.04300
C451        C  0.50253378  0.36814014  0.59257939     0.93900
C452        C  0.49625464  0.36946415  0.89694726     0.93000
C453        C  0.59509828  0.36996020  0.49500462     0.85200
C454        C  0.40513608  0.36909242  0.99569724     0.91400
O455        O  0.49587323  0.33076655  0.81939047    -0.72300
O456        O  0.49890912  0.32992576  0.67061857    -0.73300
O457        O  0.56678367  0.32850303  0.74648714    -0.61900
O458        O  0.42755611  0.33224603  0.74396072    -0.70300
O459        O  0.42911545  0.40944854  0.74336405    -0.69900
O460        O  0.56843757  0.40571857  0.74604721    -0.61100
O461        O  0.50053582  0.40708019  0.67003221    -0.73700
O462        O  0.49744770  0.40792701  0.81891565    -0.72400
Cu463      Cu  0.49714103  0.32766045  0.74504221     1.04600
Cu464      Cu  0.49891507  0.41027499  0.74445778     1.04300
C465        C  0.49643513  0.36940924  0.84256437     0.93900
C466        C  0.50062450  0.36838065  0.64692770     0.93000
C467        C  0.58935892  0.36662199  0.74704753     0.85200
C468        C  0.40653967  0.37130863  0.74392050     0.91400
O469        O  0.22397258  0.60232651  0.92581201    -0.72300
O470        O  0.22924392  0.59640142  0.57435103    -0.73300
O471        O  0.22915202  0.66495751  0.49931723    -0.61900
O472        O  0.22322822  0.53101843  0.99930829    -0.70300
O473        O  0.30042624  0.53023535  0.99875305    -0.69900
O474        O  0.30639129  0.66546459  0.49923847    -0.61100
O475        O  0.30640292  0.59681826  0.57473202    -0.73700
O476        O  0.30112552  0.60139793  0.92570805    -0.72400
Cu477      Cu  0.22691649  0.59545672  0.50007939     1.04600
Cu478      Cu  0.30406911  0.59987567  0.99995523     1.04300
C479        C  0.26263240  0.60254026  0.90233798     0.93900
C480        C  0.26763123  0.59768152  0.59793289     0.93000
C481        C  0.26400513  0.69174656  0.00180226     0.85200
C482        C  0.26162923  0.50881155  0.99870736     0.91400
O483        O  0.22801375  0.60257773  0.67500762    -0.72300
O484        O  0.22488173  0.60460184  0.82397510    -0.73300
O485        O  0.22805954  0.67375999  0.74836716    -0.61900
O486        O  0.22477854  0.53436496  0.75037639    -0.70300
O487        O  0.30198363  0.53291601  0.75219909    -0.69900
O488        O  0.30523967  0.67196972  0.74919148    -0.61100
O489        O  0.30202388  0.60332692  0.82503462    -0.73700
O490        O  0.30514138  0.60062827  0.67626041    -0.72400
Cu491      Cu  0.22369407  0.60401917  0.74936924     1.04600
Cu492      Cu  0.30628937  0.60225651  0.75074371     1.04300
C493        C  0.26694837  0.60042369  0.65224914     0.93900
C494        C  0.26309248  0.60369837  0.84793069     0.93000
C495        C  0.26715508  0.69466947  0.74853790     0.85200
C496        C  0.26299556  0.51191449  0.75144339     0.91400
O497        O  0.73799192  0.76790796  0.54056902    -0.72300
O498        O  0.73071478  0.90679953  0.53923610    -0.73300
O499        O  0.66470218  0.83408833  0.54109618    -0.61900
O500        O  0.80445825  0.84137922  0.53723127    -0.70300
O501        O  0.80255509  0.83503029  0.96563627    -0.69900
O502        O  0.66341795  0.83849255  0.96250540    -0.61100
O503        O  0.73488518  0.90632583  0.96561443    -0.73700
O504        O  0.73162683  0.76737541  0.96210350    -0.72400
Cu505      Cu  0.73455480  0.83753029  0.54248323     1.04600
Cu506      Cu  0.73315943  0.83689869  0.96109383     1.04300
C507        C  0.73613101  0.74558738  0.49973436     0.93900
C508        C  0.73101121  0.92855724  0.49786892     0.93000
C509        C  0.64233070  0.83452748  0.50015165     0.85200
C510        C  0.82526972  0.83977315  0.49520799     0.91400
O511        O  0.73698149  0.76187959  0.79336967    -0.72300
O512        O  0.73820627  0.90100412  0.79710402    -0.73300
O513        O  0.66766993  0.83176717  0.79508739    -0.61900
O514        O  0.80742796  0.83078111  0.79493572    -0.70300
O515        O  0.80705203  0.83264475  0.71274771    -0.69900
O516        O  0.66807129  0.83408494  0.71252942    -0.61100
O517        O  0.73832268  0.90292237  0.71485621    -0.73700
O518        O  0.73675247  0.76388323  0.71077729    -0.72400
Cu519      Cu  0.73756815  0.83128716  0.79806275     1.04600
Cu520      Cu  0.73758089  0.83347250  0.70990169     1.04300
C521        C  0.73648810  0.74115669  0.75153563     0.93900
C522        C  0.73851504  0.92412039  0.75650634     0.93000
C523        C  0.64606539  0.83289049  0.75370007     0.85200
C524        C  0.82946237  0.83159464  0.75362776     0.91400
O525        O  0.80000417  0.36816447  0.95921944    -0.72300
O526        O  0.66118827  0.36932214  0.95595769    -0.73300
O527        O  0.73111831  0.43877940  0.95749793    -0.61900
O528        O  0.73025494  0.29896410  0.95926762    -0.70300
O529        O  0.73692822  0.30041763  0.53849937    -0.69900
O530        O  0.73632552  0.43939758  0.53923058    -0.61100
O531        O  0.66688130  0.36972180  0.53750639    -0.73700
O532        O  0.80641560  0.37016938  0.53970986    -0.72400
Cu533      Cu  0.73068555  0.36879885  0.95505943     1.04600
Cu534      Cu  0.73660693  0.36994580  0.54161692     1.04300
C535        C  0.82891371  0.36849827  0.49875380     0.93900
C536        C  0.64574999  0.37070549  0.49585675     0.93000
C537        C  0.73778684  0.46145759  0.49810571     0.85200
C538        C  0.73646214  0.27836675  0.49738349     0.91400
O539        O  0.80237367  0.36544978  0.71722448    -0.72300
O540        O  0.66360483  0.36430097  0.70952353    -0.73300
O541        O  0.73253675  0.43468324  0.71157811    -0.61900
O542        O  0.73438210  0.29536328  0.71528024    -0.70300
O543        O  0.72908829  0.29683365  0.79757219    -0.69900
O544        O  0.72905726  0.43626269  0.79407569    -0.61100
O545        O  0.65959362  0.36664795  0.79198883    -0.73700
O546        O  0.79885384  0.36665805  0.79951559    -0.72400
Cu547      Cu  0.73328829  0.36489415  0.71053877     1.04600
Cu548      Cu  0.72895437  0.36664135  0.79871019     1.04300
C549        C  0.82266080  0.36587395  0.75935906     0.93900
C550        C  0.63986102  0.36563194  0.74959650     0.93000
C551        C  0.73083473  0.45727633  0.75228655     0.85200
C552        C  0.73240560  0.27413797  0.75697861     0.91400
O553        O  0.27373283  0.29166951  0.53977164    -0.72300
O554        O  0.26929669  0.43101289  0.54107459    -0.73300
O555        O  0.20148404  0.35901685  0.54145044    -0.61900
O556        O  0.34089381  0.36353885  0.53864775    -0.70300
O557        O  0.33219687  0.36750222  0.95601763    -0.69900
O558        O  0.19336805  0.36568222  0.95903914    -0.61100
O559        O  0.26170514  0.43635976  0.95729800    -0.73700
O560        O  0.26360925  0.29676230  0.95815362    -0.72400
Cu561      Cu  0.27137813  0.36126918  0.54315778     1.04600
Cu562      Cu  0.26264702  0.36653524  0.95475139     1.04300
C563        C  0.26588211  0.27488281  0.99947041     0.93900
C564        C  0.26141043  0.45812874  0.99857196     0.93000
C565        C  0.17162322  0.36499982  0.00044612     0.85200
C566        C  0.35460365  0.36864739  0.99681866     0.91400
O567        O  0.26416932  0.43938278  0.79240435    -0.72300
O568        O  0.26874681  0.30044277  0.79140595    -0.73300
O569        O  0.33572015  0.37184156  0.78823915    -0.61900
O570        O  0.19646177  0.36762579  0.79537298    -0.70300
O571        O  0.19325329  0.36914274  0.71306072    -0.69900
O572        O  0.33257359  0.37207956  0.70572444    -0.61100
O573        O  0.26509568  0.30089031  0.70926630    -0.73700
O574        O  0.26120191  0.44001547  0.70985066    -0.72400
Cu575      Cu  0.26629322  0.36983441  0.79472785     1.04600
Cu576      Cu  0.26279713  0.37054713  0.70657834     1.04300
C577        C  0.26241338  0.46143011  0.75126657     0.93900
C578        C  0.26842679  0.27853544  0.75021269     0.93000
C579        C  0.35593018  0.37210926  0.74596067     0.85200
C580        C  0.17280081  0.36814881  0.75526163     0.91400
O581        O  0.26532118  0.89826168  0.53788637    -0.72300
O582        O  0.26558540  0.75940931  0.53923218    -0.73300
O583        O  0.33509131  0.82909386  0.54144320    -0.61900
O584        O  0.19576868  0.82884159  0.53535093    -0.70300
O585        O  0.19535422  0.83475852  0.96276941    -0.69900
O586        O  0.33467180  0.83327172  0.96006852    -0.61100
O587        O  0.26414796  0.76437602  0.96105137    -0.73700
O588        O  0.26611643  0.90343307  0.96149435    -0.72400
Cu589      Cu  0.26528622  0.82885997  0.54133119     1.04600
Cu590      Cu  0.26499968  0.83394140  0.95846762     1.04300
C591        C  0.26658550  0.92535263  0.00268418     0.93900
C592        C  0.26467280  0.74231122  0.00222024     0.93000
C593        C  0.35685526  0.83357987  0.00105511     0.85200
C594        C  0.17370015  0.83432245  0.00429156     0.91400
O595        O  0.26721198  0.76725694  0.78939847    -0.72300
O596        O  0.27449574  0.90647564  0.78916349    -0.73300
O597        O  0.20114402  0.84055740  0.78873328    -0.61900
O598        O  0.33995102  0.83347906  0.79009386    -0.70300
O599        O  0.34086913  0.83631338  0.70751925    -0.69900
O600        O  0.20154626  0.83654366  0.70631194    -0.61100
O601        O  0.27136551  0.90647380  0.70673349    -0.73700
O602        O  0.27081968  0.76698462  0.70687944    -0.72400
Cu603      Cu  0.27062678  0.83694884  0.79222561     1.04600
Cu604      Cu  0.27119131  0.83664874  0.70390659     1.04300
C605        C  0.26839302  0.74532075  0.74824102     0.93900
C606        C  0.27378648  0.92842290  0.74786343     0.93000
C607        C  0.17944985  0.83868409  0.74745976     0.85200
C608        C  0.36214185  0.83435855  0.74904164     0.91400
C609        C  0.24733897  0.05380848  0.71707952     0.13300
C610        C  0.27840694  0.07750276  0.74829569     0.00200
C611        C  0.30833787  0.05171760  0.77908182     0.15200
C612        C  0.30662580  0.00313853  0.77920068     0.24600
C613        C  0.27572985  0.97958025  0.74772169    -0.41700
C614        C  0.24640991  0.00528748  0.71636929     0.31700
C615        C  0.27857271  0.12901210  0.74929091     0.00300
F616        F  0.33973491  0.07355588  0.80843193    -0.14000
F617        F  0.21549026  0.98341514  0.68650156    -0.14500
C618        C  0.27159502  0.15293406  0.79411229     0.15200
C619        C  0.26882826  0.20141165  0.79456580     0.24600
C620        C  0.27241598  0.22707683  0.74997799    -0.41600
C621        C  0.28048126  0.20294059  0.70525433     0.31600
C622        C  0.28378435  0.15451142  0.70505560     0.13300
F623        F  0.26598007  0.12927437  0.83740446    -0.14000
F624        F  0.28557930  0.22604734  0.66155530    -0.14500
F625        F  0.26177262  0.22297763  0.83872164    -0.16800
F626        F  0.29237440  0.13241594  0.66152014    -0.15400
F627        F  0.21680070  0.07772737  0.68838152    -0.15400
F628        F  0.33601492  0.97906269  0.80910782    -0.16800
C629        C  0.24268796  0.14945230  0.96602456     0.13300
C630        C  0.27018977  0.12582047  0.00086597     0.00200
C631        C  0.29972766  0.14512473  0.53199594     0.15200
C632        C  0.29986059  0.19371625  0.53237699     0.24600
C633        C  0.26765300  0.22362745  0.99977247    -0.41700
C634        C  0.24146017  0.19799185  0.96539549     0.31700
C635        C  0.27049153  0.07456905  0.00199748     0.00300
F636        F  0.32710310  0.12155105  0.56442006    -0.14000
F637        F  0.21342557  0.21990826  0.93231182    -0.14500
C638        C  0.29008975  0.04945285  0.96257338     0.15200
C639        C  0.28887471  0.00090956  0.96276160     0.24600
C640        C  0.26806543  0.97669969  0.00256891    -0.41600
C641        C  0.25268285  0.99676612  0.53854397     0.31600
C642        C  0.25426458  0.04526641  0.53889030     0.13300
F643        F  0.31082955  0.07204132  0.92413699    -0.14000
F644        F  0.23481191  0.97441930  0.57874750    -0.14500
F645        F  0.30891843  0.97763705  0.92447979    -0.16800
F646        F  0.23801716  0.06851963  0.57916775    -0.15400
F647        F  0.21617966  0.12536801  0.93338269    -0.15400
F648        F  0.32741259  0.21623307  0.56530342    -0.16800
C649        C  0.04925890  0.34536867  0.79846398     0.13300
C650        C  0.02343238  0.36847605  0.76170307     0.00200
C651        C  0.04688051  0.39174181  0.72316753     0.15200
C652        C  0.09538730  0.39141337  0.72095502     0.24600
C653        C  0.12142325  0.36816139  0.75760655    -0.41700
C654        C  0.09786758  0.34529561  0.79653777     0.31700
C655        C  0.97203719  0.36689624  0.76220992     0.00300
F656        F  0.02267038  0.41524156  0.68788551    -0.14000
F657        F  0.12181538  0.32143232  0.83172818    -0.14500
C658        C  0.94659611  0.38580393  0.80193091     0.15200
C659        C  0.89799820  0.38470151  0.80171981     0.24600
C660        C  0.87402220  0.36536872  0.76119998    -0.41600
C661        C  0.89970219  0.34618169  0.72162486     0.31600
C662        C  0.94817916  0.34680804  0.72227902     0.13300
F663        F  0.96876816  0.40689748  0.84004941    -0.14000
F664        F  0.87795079  0.32599465  0.68254276    -0.14500
F665        F  0.87451691  0.40401133  0.84032139    -0.16800
F666        F  0.97196259  0.32736267  0.68398546    -0.15400
F667        F  0.02733844  0.32159991  0.83530627    -0.15400
F668        F  0.11687482  0.41476712  0.68351211    -0.16800
C669        C  0.04700168  0.38091404  0.95838445     0.13300
C670        C  0.02200205  0.36812454  0.00107988     0.00200
C671        C  0.05377311  0.34628821  0.54374812     0.15200
C672        C  0.10238731  0.34618443  0.54384840     0.24600
C673        C  0.12010861  0.36552402  0.00075653    -0.41700
C674        C  0.09544962  0.37941239  0.95800834     0.31700
C675        C  0.97057051  0.36889854  0.00088394     0.00300
F676        F  0.03056112  0.33354044  0.58559138    -0.14000
F677        F  0.11807240  0.39269490  0.91598052    -0.14500
C678        C  0.94585140  0.34229659  0.96615180     0.15200
C679        C  0.89732876  0.34278048  0.96594508     0.24600
C680        C  0.88009372  0.36614549  0.49930693    -0.41600
C681        C  0.90570741  0.39238039  0.53363660     0.31600
C682        C  0.95422411  0.38989235  0.53414849     0.13300
F683        F  0.96874995  0.31498724  0.93311052    -0.14000
F684        F  0.88383908  0.42161361  0.56556098    -0.14500
F685        F  0.87445415  0.31607079  0.93247270    -0.16800
F686        F  0.97825713  0.41702950  0.56625614    -0.15400
F687        F  0.02447084  0.39596252  0.91723539    -0.15400
F688        F  0.12476857  0.33338243  0.58606982    -0.16800
C689        C  0.05596978  0.80228506  0.72169125     0.13300
C690        C  0.03071592  0.83454092  0.75011921     0.00200
C691        C  0.05471223  0.86865176  0.77710472     0.15200
C692        C  0.10325064  0.87017018  0.77608282     0.24600
C693        C  0.12839783  0.83803567  0.74749964    -0.41700
C694        C  0.10446337  0.80425179  0.72008833     0.31700
C695        C  0.97935087  0.83299448  0.75110117     0.00300
F696        F  0.03104712  0.90103523  0.80363088    -0.14000
F697        F  0.12816108  0.77208252  0.69327416    -0.14500
C698        C  0.95539243  0.82659053  0.79608341     0.15200
C699        C  0.90681642  0.82602360  0.79710502     0.24600
C700        C  0.88114075  0.83159479  0.75286375    -0.41600
C701        C  0.90556848  0.83750036  0.70769570     0.31600
C702        C  0.95407681  0.83829609  0.70697698     0.13300
F703        F  0.97914615  0.82009523  0.83902019    -0.14000
F704        F  0.88275538  0.84317821  0.66400741    -0.14500
F705        F  0.88516909  0.81970882  0.84148440    -0.16800
F706        F  0.97645465  0.84530235  0.66314036    -0.15400
F707        F  0.03365453  0.76820967  0.69645232    -0.15400
F708        F  0.12570017  0.90375540  0.80193316    -0.16800
C709        C  0.75059794  0.04840356  0.80216930     0.13300
C710        C  0.73916075  0.07380436  0.75929984     0.00200
C711        C  0.72778121  0.04997549  0.71559590     0.15200
C712        C  0.72773287  0.00147855  0.71462630     0.24600
C713        C  0.73895410  0.97568044  0.75758405    -0.41700
C714        C  0.75047033  0.99980591  0.80142663     0.31700
C715        C  0.73854626  0.12518126  0.75999682     0.00300
F716        F  0.71566763  0.07379663  0.67398473    -0.14000
F717        F  0.76237514  0.97653985  0.84345757    -0.14500
C718        C  0.76721831  0.15055836  0.72748831     0.15200
C719        C  0.76505713  0.19905646  0.72638490     0.24600
C720        C  0.73454177  0.22297298  0.75819961    -0.41600
C721        C  0.70621080  0.19760014  0.79108011     0.31600
C722        C  0.70804712  0.14904481  0.79179886     0.13300
F723        F  0.79762129  0.12828947  0.69711518    -0.14000
F724        F  0.67525913  0.21975945  0.82086769    -0.14500
F725        F  0.79354975  0.22270449  0.69500085    -0.16800
F726        F  0.67878580  0.12519936  0.82214917    -0.15400
F727        F  0.76271481  0.07072942  0.84454662    -0.15400
F728        F  0.71573335  0.97994734  0.67173275    -0.16800
C729        C  0.95065458  0.87283061  0.51778316     0.13300
C730        C  0.97415225  0.83954725  0.48899698     0.00200
C731        C  0.94797746  0.80523665  0.97702862     0.15200
C732        C  0.89946307  0.80545024  0.97682471     0.24600
C733        C  0.87638604  0.84031232  0.49283469    -0.41700
C734        C  0.90205319  0.87307358  0.51990346     0.31700
C735        C  0.02544325  0.83695073  0.48968698     0.00300
F736        F  0.97104151  0.77483256  0.94740425    -0.14000
F737        F  0.88003661  0.90589422  0.54742006    -0.14500
C738        C  0.04845537  0.82423830  0.53350630     0.15200
C739        C  0.09688470  0.82114500  0.53459479     0.24600
C740        C  0.12211193  0.83473087  0.00529686    -0.41600
C741        C  0.09653800  0.84472078  0.96191220     0.31600
C742        C  0.04802259  0.84563764  0.96315980     0.13300
F743        F  0.02380935  0.81393861  0.57515172    -0.14000
F744        F  0.11826615  0.85423455  0.91822711    -0.14500
F745        F  0.11757413  0.80799354  0.57766872    -0.16800
F746        F  0.02443116  0.85685331  0.92122891    -0.15400
F747        F  0.97488424  0.90519728  0.54355847    -0.15400
F748        F  0.87656122  0.77532974  0.94688783    -0.16800
C749        C  0.76406887  0.05178222  0.97709952     0.13300
C750        C  0.73269352  0.07647436  0.00712951     0.00200
C751        C  0.70432442  0.05303232  0.53285074     0.15200
C752        C  0.70381070  0.00444170  0.53262766     0.24600
C753        C  0.73054919  0.97973312  0.49771824    -0.41700
C754        C  0.76389604  0.00325384  0.97712121     0.31700
C755        C  0.73192827  0.12780520  0.00573263     0.00300
F756        F  0.67735516  0.07621924  0.56601161    -0.14000
F757        F  0.79489435  0.98019660  0.94815205    -0.14500
C758        C  0.72179889  0.15120717  0.96128880     0.15200
C759        C  0.72135688  0.19973350  0.95958302     0.24600
C760        C  0.73565434  0.22687134  0.49759172    -0.41600
C761        C  0.74924196  0.20174229  0.54022696     0.31600
C762        C  0.74776358  0.15320662  0.54060181     0.13300
F763        F  0.71147306  0.12688713  0.91967066    -0.14000
F764        F  0.76496966  0.22396796  0.58130128    -0.14500
F765        F  0.71085867  0.22094294  0.91598307    -0.16800
F766        F  0.76206463  0.12987779  0.58173738    -0.15400
F767        F  0.79530268  0.07477108  0.94827120    -0.15400
F768        F  0.67639955  0.98158150  0.56574336    -0.16800
loop_ 
_geom_bond_atom_site_label_1 
_geom_bond_atom_site_label_2 
_geom_bond_distance 
_geom_bond_site_symmetry_2 
_ccdc_geom_bond_type 
O1           C11   1.279       .  A
O1         Cu393   2.013       .  S
O2           C12   1.277       .  A
O2           Cu9   2.001       .  S
O3          C397   1.276       .  A
O3           Cu9   2.005       .  S
O4          C398   1.276       .  A
O4         Cu393   2.007       .  S
O5          C398   1.277       .  A
O5          Cu10   2.007       .  S
O6          C397   1.277       .  A
O6         Cu394   2.009       .  S
O7           C12   1.277       .  A
O7         Cu394   2.006       .  S
O8           C11   1.277       .  A
O8          Cu10   2.004       .  S
Cu9         O385   2.002   1_554  S
Cu9         O388   2.004       .  S
Cu9        Cu394   2.380       .  S
Cu10        O390   2.009       .  S
Cu10        O391   1.999       .  S
Cu10       Cu393   2.379       .  S
C11          C28   1.467       .  S
C12          C27   1.462       .  S
C13         O387   1.276       .  A
C13         O390   1.277       .  A
C13         C209   1.458       .  S
C14         O388   1.276       .  A
C14         O389   1.277       .  A
C14         C125   1.456       .  S
O15          C25   1.276       .  A
O15         Cu23   2.007       .  S
O16          C26   1.276       .  A
O16         Cu23   2.004       .  S
O17          C27   1.277       .  A
O17         Cu23   2.008       .  S
O18          C28   1.279       .  A
O18         Cu23   2.012       .  S
O19          C28   1.277       .  A
O19         Cu24   2.006       .  S
O20          C27   1.277       .  A
O20         Cu24   1.999       .  S
O21          C26   1.277       .  A
O21         Cu24   2.008       .  S
O22          C25   1.277       .  A
O22         Cu24   2.010       .  S
Cu23        Cu24   2.379       .  S
C25         C224   1.458       .  S
C26         C139   1.456       .  S
O29          C39   1.277       .  A
O29        Cu421   2.008       .  S
O30         C424   1.276       .  A
O30         Cu37   2.006       .  S
O31          C41   1.278       .  A
O31         Cu37   2.011       .  S
O32          C42   1.276       .  A
O32        Cu421   2.000       .  S
O33          C42   1.278       .  A
O33         Cu38   2.009       .  S
O34          C41   1.276       .  A
O34        Cu422   1.996       .  S
O35          C40   1.276       .  A
O35         Cu38   2.006   1_556  S
O36          C39   1.276       .  A
O36         Cu38   2.008       .  S
Cu37        O413   2.010       .  S
Cu37        O416   2.013       .  S
Cu37       Cu422   2.379       .  S
Cu38        O418   2.009   1_554  S
Cu38       Cu421   2.379       .  S
C39         C123   1.458       .  S
C40         O414   1.276       .  A
C40         C153   1.456       .  S
C41          C53   1.463       .  S
C42          C54   1.463       .  S
O43          C53   1.277       .  A
O43         Cu51   2.006       .  S
O44          C54   1.278       .  A
O44         Cu51   2.002       .  S
O45          C55   1.277       .  A
O45         Cu51   2.013       .  S
O46          C56   1.277       .  A
O46         Cu51   2.011       .  S
O47          C56   1.275       .  A
O47         Cu52   2.001       .  S
O48          C55   1.275       .  A
O48         Cu52   2.002       .  S
O49          C54   1.277       .  A
O49         Cu52   2.007       .  S
O50          C53   1.278       .  A
O50         Cu52   2.004       .  S
Cu51        Cu52   2.379       .  S
C55         C137   1.457       .  S
C56         C167   1.456       .  S
O57          C67   1.277       .  A
O57        Cu449   2.002   1_554  S
O58          C68   1.278       .  A
O58         Cu65   2.009       .  S
O59         C453   1.276       .  A
O59         Cu65   2.007       .  S
O60         C454   1.276       .  A
O60        Cu449   2.003       .  S
O61         C454   1.277       .  A
O61         Cu66   2.009       .  S
O62         C453   1.277       .  A
O62        Cu450   2.013       .  S
O63          C68   1.277       .  A
O63        Cu450   2.004       .  S
O64          C67   1.277       .  A
O64         Cu66   2.003   1_554  S
Cu65        O441   2.007       .  S
Cu65        O444   2.000       .  S
Cu65       Cu450   2.379       .  S
Cu66        O446   2.008       .  S
Cu66        O447   2.006       .  S
Cu66       Cu449   2.380       .  S
C67          C82   1.462       .  S
C68          C81   1.465       .  S
C69         O443   1.276       .  A
C69         O446   1.277       .  A
C69         C152   1.456       .  S
C70         O444   1.275       .  A
C70         O445   1.277       .  A
C70         C182   1.454       .  S
O71          C81   1.277       .  A
O71         Cu79   2.006       .  S
O72          C82   1.277       .  A
O72         Cu79   2.003       .  S
O73          C83   1.277       .  A
O73         Cu79   2.007       .  S
O74          C84   1.277       .  A
O74         Cu79   2.010       .  S
O75          C84   1.277       .  A
O75         Cu80   2.009       .  S
O76          C83   1.276       .  A
O76         Cu80   2.008       .  S
O77          C82   1.277       .  A
O77         Cu80   2.004       .  S
O78          C81   1.278       .  A
O78         Cu80   2.006       .  S
Cu79        Cu80   2.379       .  S
C83         C166   1.457       .  S
C84         C195   1.459       .  S
O85          C95   1.276       .  A
O85        Cu477   1.998       .  S
O86          C96   1.279       .  A
O86         Cu93   2.012       .  S
O87         C481   1.277       .  A
O87         Cu93   2.007       .  S
O88          C98   1.277       .  A
O88        Cu477   2.011       .  S
O89          C98   1.277       .  A
O89         Cu94   2.012       .  S
O90         C481   1.276       .  A
O90        Cu478   2.005   1_554  S
O91          C96   1.276       .  A
O91        Cu478   2.001   1_554  S
O92          C95   1.278       .  A
O92         Cu94   2.007       .  S
Cu93        O469   2.012   1_554  S
Cu93        O472   2.013   1_554  S
Cu93       Cu478   2.379   1_554  S
Cu94        O474   2.004       .  S
Cu94        O475   2.010       .  S
Cu94       Cu477   2.379       .  S
C95         C110   1.462       .  S
C96         C109   1.465       .  S
C97         O471   1.276       .  A
C97         O474   1.276       .  A
C97         C208   1.454       .  S
C98         C180   1.460       .  S
O99         C109   1.277       .  A
O99        Cu107   2.007       .  S
O100        C110   1.277       .  A
O100       Cu107   1.999       .  S
O101        C111   1.276       .  A
O101       Cu107   2.007       .  S
O102        C112   1.276       .  A
O102       Cu107   2.001       .  S
O103        C112   1.276       .  A
O103       Cu108   2.004       .  S
O104        C111   1.277       .  A
O104       Cu108   2.011       .  S
O105        C110   1.277       .  A
O105       Cu108   2.005       .  S
O106        C109   1.278       .  A
O106       Cu108   2.006       .  S
Cu107      Cu108   2.380       .  S
C111        C221   1.458       .  S
C112        C193   1.453       .  S
O113        C123   1.278       .  A
O113       Cu121   2.014       .  S
O114        C124   1.278       .  A
O114       Cu121   2.008       .  S
O115        C125   1.276       .  A
O115       Cu121   2.003       .  S
O116        C126   1.278       .  A
O116       Cu121   2.011       .  S
O117        C510   1.276       .  A
O117       Cu122   1.999       .  S
O118        C509   1.275       .  A
O118       Cu122   1.999       .  S
O119        C508   1.279       .  A
O119       Cu122   2.012       .  S
O120        C507   1.277       .  A
O120       Cu122   2.010       .  S
Cu121      Cu506   2.378   1_554  S
Cu122      Cu505   2.377       .  S
C123        O504   1.275   1_554  A
C124        O503   1.277   1_554  A
C124        C369   1.472       .  S
C125        O502   1.277   1_554  A
C126        O501   1.277   1_554  A
C126        C349   1.472       .  S
O127        C137   1.277       .  A
O127       Cu135   2.007       .  S
O128        C138   1.278       .  A
O128       Cu135   2.008       .  S
O129        C139   1.276       .  A
O129       Cu135   2.004       .  S
O130        C140   1.277       .  A
O130       Cu135   2.002       .  S
O131        C140   1.278       .  A
O131       Cu136   2.007       .  S
O132        C139   1.277       .  A
O132       Cu136   2.008       .  S
O133        C138   1.278       .  A
O133       Cu136   2.009       .  S
O134        C137   1.276       .  A
O134       Cu136   2.006       .  S
Cu135      Cu136   2.374       .  S
C138        C329   1.485       .  S
C140        C316   1.485       .  S
O141        C535   1.278       .  A
O141       Cu149   2.006       .  S
O142        C536   1.276       .  A
O142       Cu149   2.007       .  S
O143        C537   1.277       .  A
O143       Cu149   2.011       .  S
O144        C538   1.278       .  A
O144       Cu149   2.007       .  S
O145        C154   1.277       .  A
O145       Cu150   2.000       .  S
O146        C153   1.274   1_554  A
O146       Cu150   1.994       .  S
O147        C152   1.278   1_554  A
O147       Cu150   2.012       .  S
O148        C151   1.279       .  A
O148       Cu150   2.014       .  S
Cu149      Cu534   2.376       .  S
Cu150      Cu533   2.376   1_554  S
C151        O525   1.277   1_554  A
C151        C296   1.475       .  S
C152        O526   1.275       .  A
C153        O527   1.278       .  A
C154        O528   1.279   1_554  A
C154        C376   1.486       .  S
O155        C165   1.277       .  A
O155       Cu163   1.998       .  S
O156        C166   1.277       .  A
O156       Cu163   2.010       .  S
O157        C167   1.277       .  A
O157       Cu163   2.009       .  S
O158        C168   1.278       .  A
O158       Cu163   2.008       .  S
O159        C168   1.277       .  A
O159       Cu164   2.003       .  S
O160        C167   1.276       .  A
O160       Cu164   2.003       .  S
O161        C166   1.276       .  A
O161       Cu164   2.005       .  S
O162        C165   1.278       .  A
O162       Cu164   2.008       .  S
Cu163      Cu164   2.377       .  S
C165        C276   1.481       .  S
C168        C336   1.472       .  S
O169        C563   1.278   1_554  A
O169       Cu177   2.008       .  S
O170        C564   1.276   1_554  A
O170       Cu177   2.007       .  S
O171        C565   1.279       .  A
O171       Cu177   2.012       .  S
O172        C566   1.277   1_554  A
O172       Cu177   2.006       .  S
O173        C182   1.275       .  A
O173       Cu178   2.001       .  S
O174        C181   1.277       .  A
O174       Cu178   1.997       .  S
O175        C180   1.277       .  A
O175       Cu178   2.012       .  S
O176        C179   1.278       .  A
O176       Cu178   2.010       .  S
Cu177      Cu562   2.376   1_554  S
Cu178      Cu561   2.376       .  S
C179        O553   1.277       .  A
C179        C249   1.476       .  S
C180        O554   1.276       .  A
C181        O555   1.279       .  A
C181        C289   1.485       .  S
C182        O556   1.277       .  A
O183        C193   1.277       .  A
O183       Cu191   2.009       .  S
O184        C194   1.279       .  A
O184       Cu191   2.007       .  S
O185        C195   1.276       .  A
O185       Cu191   2.006       .  S
O186        C196   1.277       .  A
O186       Cu191   2.002       .  S
O187        C196   1.279       .  A
O187       Cu192   2.010       .  S
O188        C195   1.277       .  A
O188       Cu192   2.013       .  S
O189        C194   1.277       .  A
O189       Cu192   2.003       .  S
O190        C193   1.274       .  A
O190       Cu192   1.995       .  S
Cu191      Cu192   2.376       .  S
C194        C236   1.486       .  S
C196        C269   1.475       .  S
O197        C591   1.278       .  A
O197       Cu205   2.008       .  S
O198        C592   1.277       .  A
O198       Cu205   2.008       .  S
O199        C593   1.276       .  A
O199       Cu205   2.005       .  S
O200        C594   1.278       .  A
O200       Cu205   2.003       .  S
O201        C210   1.278       .  A
O201       Cu206   2.011       .  S
O202        C209   1.276       .  A
O202       Cu206   2.006       .  S
O203        C208   1.277       .  A
O203       Cu206   2.007       .  S
O204        C207   1.278       .  A
O204       Cu206   2.006       .  S
Cu205      Cu590   2.375   1_554  S
Cu206      Cu589   2.375       .  S
C207        O581   1.277       .  A
C207        C256   1.481       .  S
C208        O582   1.275       .  A
C209        O583   1.277       .  A
C210        O584   1.278       .  A
C210        C356   1.488       .  S
O211        C221   1.277       .  A
O211       Cu219   2.013       .  S
O212        C222   1.278       .  A
O212       Cu219   2.007       .  S
O213        C223   1.277       .  A
O213       Cu219   2.003       .  S
O214        C224   1.275       .  A
O214       Cu219   2.001       .  S
O215        C224   1.278       .  A
O215       Cu220   2.016       .  S
O216        C223   1.278       .  A
O216       Cu220   2.012       .  S
O217        C222   1.278       .  A
O217       Cu220   2.011       .  S
O218        C221   1.276       .  A
O218       Cu220   2.003       .  S
Cu219      Cu220   2.377       .  S
C222        C229   1.474       .  S
C223        C309   1.472       .  S
C225        C226   1.407       .  A
C225        C230   1.400       .  A
C225        F243   1.358       .  S
C226        C231   1.482       .  S
C226        C227   1.406       .  A
C227        C228   1.397       .  A
C227        F232   1.358       .  S
C228        C229   1.405   1_545  A
C228        F244   1.358   1_545  S
C229        C230   1.406   1_565  A
C230        F233   1.358   1_545  S
C231        C234   1.404       .  A
C231        C238   1.404       .  A
C234        C235   1.397       .  A
C234        F239   1.357       .  S
C235        C236   1.410       .  A
C235        F241   1.356       .  S
C236        C237   1.411       .  A
C237        C238   1.398       .  A
C237        F240   1.357       .  S
C238        F242   1.356       .  S
C245        C246   1.403       .  A
C245        C250   1.397       .  A
C245        F263   1.357       .  S
C246        C251   1.477       .  S
C246        C631   1.404       .  A
C247        C248   1.399       .  A
C247        C630   1.403       .  A
C247        F252   1.358       .  S
C248        C633   1.408   1_554  A
C248        F264   1.358       .  S
C249        C250   1.406       .  A
C249        C632   1.407       .  A
C250        F253   1.357       .  S
C251        C254   1.403       .  A
C251        C642   1.403       .  A
C254        C255   1.398   1_545  A
C254        F259   1.358       .  S
C255        C256   1.410       .  A
C255        F261   1.358       .  S
C256        C641   1.410       .  A
C257        C258   1.398       .  A
C257        C640   1.408   1_545  A
C257        F260   1.357   1_545  S
C258        C635   1.403       .  A
C258        F262   1.357       .  S
C265        C266   1.405       .  A
C265        C270   1.398       .  A
C265        F283   1.358       .  S
C266        C271   1.479   1_455  S
C266        C267   1.406       .  A
C267        C268   1.397       .  A
C267        F272   1.358       .  S
C268        C269   1.406       .  A
C268        F284   1.358       .  S
C269        C270   1.408       .  A
C270        F273   1.358       .  S
C271        C274   1.404       .  A
C271        C278   1.403       .  A
C274        C275   1.398       .  A
C274        F279   1.356       .  S
C275        C276   1.410       .  A
C275        F281   1.358       .  S
C276        C277   1.410       .  A
C277        C278   1.396       .  A
C277        F280   1.358       .  S
C278        F282   1.357       .  S
C285        C286   1.403       .  A
C285        C290   1.396       .  A
C285        F303   1.356       .  S
C286        C291   1.481   1_455  S
C286        C671   1.405       .  A
C287        C288   1.399       .  A
C287        C670   1.404       .  A
C287        F292   1.356       .  S
C288        C673   1.410       .  A
C288        F304   1.358       .  S
C289        C290   1.411       .  A
C289        C672   1.411       .  A
C290        F293   1.358       .  S
C291        C294   1.406       .  A
C291        C682   1.406       .  A
C294        C295   1.398       .  A
C294        F299   1.358       .  S
C295        C680   1.407       .  A
C295        F301   1.358       .  S
C296        C297   1.406       .  A
C296        C679   1.407   1_554  A
C297        C298   1.399       .  A
C297        F300   1.358       .  S
C298        C675   1.406       .  A
C298        F302   1.358       .  S
C305        C306   1.406       .  A
C305        C310   1.400       .  A
C305        F323   1.358       .  S
C306        C311   1.479   1_455  S
C306        C307   1.404       .  A
C307        C308   1.397       .  A
C307        F312   1.358       .  S
C308        C309   1.405       .  A
C308        F324   1.358       .  S
C309        C310   1.406       .  A
C310        F313   1.358       .  S
C311        C314   1.403       .  A
C311        C318   1.402       .  A
C314        C315   1.398       .  A
C314        F319   1.357       .  S
C315        C316   1.412       .  A
C315        F321   1.358       .  S
C316        C317   1.410       .  A
C317        C318   1.397       .  A
C317        F320   1.356       .  S
C318        F322   1.355       .  S
C325        C326   1.402       .  A
C325        C330   1.398       .  A
C325        F343   1.357       .  S
C326        C331   1.477       .  S
C326        C327   1.402       .  A
C327        C328   1.399       .  A
C327        F332   1.357       .  S
C328        C329   1.411   1_545  A
C328        F344   1.357   1_545  S
C329        C330   1.410   1_565  A
C330        F333   1.356   1_545  S
C331        C334   1.405       .  A
C331        C338   1.404       .  A
C334        C335   1.399       .  A
C334        F339   1.358       .  S
C335        C336   1.406       .  A
C335        F341   1.358       .  S
C336        C337   1.406       .  A
C337        C338   1.397       .  A
C337        F340   1.358       .  S
C338        F342   1.358       .  S
C345        C346   1.406       .  A
C345        C350   1.400       .  A
C345        F363   1.358       .  S
C346        C351   1.480   1_655  S
C346        C731   1.405   1_554  A
C347        C348   1.398       .  A
C347        C730   1.404       .  A
C347        F352   1.358       .  S
C348        C733   1.406       .  A
C348        F364   1.358       .  S
C349        C350   1.405       .  A
C349        C732   1.405   1_554  A
C350        F353   1.358       .  S
C351        C354   1.403       .  A
C351        C742   1.403   1_554  A
C354        C355   1.398       .  A
C354        F359   1.356       .  S
C355        C740   1.411       .  A
C355        F361   1.358       .  S
C356        C357   1.412       .  A
C356        C739   1.411       .  A
C357        C358   1.400       .  A
C357        F360   1.358       .  S
C358        C735   1.403       .  A
C358        F362   1.357       .  S
C365        C366   1.404       .  A
C365        C370   1.396       .  A
C365        F383   1.357       .  S
C366        C371   1.478       .  S
C366        C751   1.405       .  A
C367        C368   1.399       .  A
C367        C750   1.405       .  A
C367        F372   1.357       .  S
C368        C369   1.405   1_545  A
C368        F384   1.358   1_545  S
C369        C754   1.405   1_564  A
C370        C753   1.404   1_545  A
C370        F373   1.357   1_545  S
C371        C374   1.404       .  A
C371        C762   1.404       .  A
C374        C375   1.397       .  A
C374        F379   1.358       .  S
C375        C760   1.410       .  A
C375        F381   1.358       .  S
C376        C377   1.412       .  A
C376        C759   1.410   1_554  A
C377        C378   1.398       .  A
C377        F380   1.357       .  S
C378        C755   1.402       .  A
C378        F382   1.357       .  S
O385        C395   1.277       .  A
O386        C396   1.278       .  A
O386       Cu393   2.010       .  S
O387       Cu393   2.008       .  S
O389       Cu394   2.009       .  S
O391        C396   1.276       .  A
O392        C395   1.277       .  A
O392       Cu394   2.004   1_556  S
C395        C412   1.462       .  S
C396        C411   1.463       .  S
C397        C593   1.456       .  S
C398        C509   1.457       .  S
O399        C409   1.275       .  A
O399       Cu407   2.001       .  S
O400        C410   1.276       .  A
O400       Cu407   2.006       .  S
O401        C411   1.277       .  A
O401       Cu407   2.003       .  S
O402        C412   1.277       .  A
O402       Cu407   2.005       .  S
O403        C412   1.277       .  A
O403       Cu408   2.002       .  S
O404        C411   1.277       .  A
O404       Cu408   2.006       .  S
O405        C410   1.277       .  A
O405       Cu408   2.012       .  S
O406        C409   1.277       .  A
O406       Cu408   2.008       .  S
Cu407      Cu408   2.379       .  S
C409        C608   1.454       .  S
C410        C523   1.458       .  S
O413        C423   1.276       .  A
O414       Cu421   2.006   1_556  S
O415        C425   1.276       .  A
O415       Cu421   1.998   1_556  S
O416        C426   1.279       .  A
O417        C426   1.276       .  A
O417       Cu422   2.001       .  S
O418        C425   1.278       .  A
O419        C424   1.277       .  A
O419       Cu422   2.007       .  S
O420        C423   1.277       .  A
O420       Cu422   2.009       .  S
C423        C507   1.458       .  S
C424        C537   1.456       .  S
C425        C437   1.463       .  S
C426        C438   1.465       .  S
O427        C437   1.278       .  A
O427       Cu435   2.003       .  S
O428        C438   1.277       .  A
O428       Cu435   2.007       .  S
O429        C439   1.276       .  A
O429       Cu435   2.002       .  S
O430        C440   1.276       .  A
O430       Cu435   2.008       .  S
O431        C440   1.277       .  A
O431       Cu436   2.011       .  S
O432        C439   1.276       .  A
O432       Cu436   2.005       .  S
O433        C438   1.278       .  A
O433       Cu436   2.007       .  S
O434        C437   1.277       .  A
O434       Cu436   2.006       .  S
Cu435      Cu436   2.379       .  S
C439        C521   1.454       .  S
C440        C551   1.459       .  S
O441        C451   1.278       .  A
O442        C452   1.277       .  A
O442       Cu449   2.005       .  S
O443       Cu449   2.004       .  S
O445       Cu450   2.007       .  S
O447        C452   1.277       .  A
O448        C451   1.277       .  A
O448       Cu450   2.002       .  S
C451        C466   1.464       .  S
C452        C465   1.464       .  S
C453        C536   1.459       .  S
C454        C566   1.455       .  S
O455        C465   1.277       .  A
O455       Cu463   2.004       .  S
O456        C466   1.277       .  A
O456       Cu463   2.005       .  S
O457        C467   1.276       .  A
O457       Cu463   2.006       .  S
O458        C468   1.277       .  A
O458       Cu463   2.008       .  S
O459        C468   1.277       .  A
O459       Cu464   2.010       .  S
O460        C467   1.277       .  A
O460       Cu464   2.007       .  S
O461        C466   1.278       .  A
O461       Cu464   2.006       .  S
O462        C465   1.277       .  A
O462       Cu464   2.005       .  S
Cu463      Cu464   2.379       .  S
C467        C550   1.456       .  S
C468        C579   1.458       .  S
O469        C479   1.279       .  A
O470        C480   1.277       .  A
O470       Cu477   2.001       .  S
O471       Cu477   2.002       .  S
O472        C482   1.277       .  A
O473        C482   1.277       .  A
O473       Cu478   2.008       .  S
O475        C480   1.278       .  A
O476        C479   1.276       .  A
O476       Cu478   2.001       .  S
C479        C494   1.465       .  S
C480        C493   1.464       .  S
C481        C592   1.456       .  S
C482        C564   1.459       .  S
O483        C493   1.278       .  A
O483       Cu491   2.006       .  S
O484        C494   1.277       .  A
O484       Cu491   2.009       .  S
O485        C495   1.277       .  A
O485       Cu491   2.012       .  S
O486        C496   1.276       .  A
O486       Cu491   2.006       .  S
O487        C496   1.276       .  A
O487       Cu492   2.001       .  S
O488        C495   1.276       .  A
O488       Cu492   2.008       .  S
O489        C494   1.278       .  A
O489       Cu492   2.003       .  S
O490        C493   1.277       .  A
O490       Cu492   2.006       .  S
Cu491      Cu492   2.379       .  S
C495        C605   1.459       .  S
C496        C577   1.454       .  S
O497        C507   1.276       .  A
O497       Cu505   2.008       .  S
O498        C508   1.276       .  A
O498       Cu505   1.999       .  S
O499        C509   1.278       .  A
O499       Cu505   2.014       .  S
O500        C510   1.280       .  A
O500       Cu505   2.021       .  S
O501       Cu506   2.003       .  S
O502       Cu506   2.009       .  S
O503       Cu506   2.004       .  S
O504       Cu506   2.002       .  S
C508        C753   1.473       .  S
C510        C733   1.473       .  S
O511        C521   1.276       .  A
O511       Cu519   2.003       .  S
O512        C522   1.278       .  A
O512       Cu519   2.007       .  S
O513        C523   1.278       .  A
O513       Cu519   2.015       .  S
O514        C524   1.279       .  A
O514       Cu519   2.013       .  S
O515        C524   1.277       .  A
O515       Cu520   2.002       .  S
O516        C523   1.275       .  A
O516       Cu520   2.003       .  S
O517        C522   1.278       .  A
O517       Cu520   2.004       .  S
O518        C521   1.276       .  A
O518       Cu520   2.004       .  S
Cu519      Cu520   2.374       .  S
C522        C713   1.485       .  S
C524        C700   1.488       .  S
O525       Cu533   1.999       .  S
O526       Cu533   2.001       .  S
O527       Cu533   2.016       .  S
O528       Cu533   2.013       .  S
O529        C538   1.278       .  A
O529       Cu534   2.004       .  S
O530        C537   1.275       .  A
O530       Cu534   2.000       .  S
O531        C536   1.277       .  A
O531       Cu534   2.011       .  S
O532        C535   1.278       .  A
O532       Cu534   2.011       .  S
C535        C680   1.475       .  S
C538        C760   1.483       .  S
O539        C549   1.277       .  A
O539       Cu547   1.998       .  S
O540        C550   1.276       .  A
O540       Cu547   2.007       .  S
O541        C551   1.277       .  A
O541       Cu547   2.010       .  S
O542        C552   1.278       .  A
O542       Cu547   2.006       .  S
O543        C552   1.278       .  A
O543       Cu548   2.010       .  S
O544        C551   1.277       .  A
O544       Cu548   2.008       .  S
O545        C550   1.276       .  A
O545       Cu548   2.006       .  S
O546        C549   1.279       .  A
O546       Cu548   2.013       .  S
Cu547      Cu548   2.377       .  S
C549        C660   1.480       .  S
C552        C720   1.475       .  S
O553       Cu561   2.007       .  S
O554       Cu561   2.009       .  S
O555       Cu561   2.014       .  S
O556       Cu561   2.006       .  S
O557        C566   1.276       .  A
O557       Cu562   2.003       .  S
O558        C565   1.277   1_556  A
O558       Cu562   1.998       .  S
O559        C564   1.277       .  A
O559       Cu562   2.012       .  S
O560        C563   1.278       .  A
O560       Cu562   2.011       .  S
C563        C633   1.477       .  S
C565        C673   1.483       .  S
O567        C577   1.276       .  A
O567       Cu575   2.004       .  S
O568        C578   1.277       .  A
O568       Cu575   2.001       .  S
O569        C579   1.277       .  A
O569       Cu575   2.007       .  S
O570        C580   1.278       .  A
O570       Cu575   2.012       .  S
O571        C580   1.278       .  A
O571       Cu576   2.010       .  S
O572        C579   1.276       .  A
O572       Cu576   2.010       .  S
O573        C578   1.279       .  A
O573       Cu576   2.008       .  S
O574        C577   1.276       .  A
O574       Cu576   2.003       .  S
Cu575      Cu576   2.375       .  S
C578        C620   1.486       .  S
C580        C653   1.481       .  S
O581       Cu589   2.000       .  S
O582       Cu589   2.000       .  S
O583       Cu589   2.010       .  S
O584       Cu589   2.009       .  S
O585        C594   1.278   1_556  A
O585       Cu590   2.009       .  S
O586        C593   1.276   1_556  A
O586       Cu590   2.007       .  S
O587        C592   1.276   1_556  A
O587       Cu590   2.004       .  S
O588        C591   1.277   1_556  A
O588       Cu590   2.003       .  S
C591        C640   1.479       .  S
C594        C740   1.486       .  S
O595        C605   1.277       .  A
O595       Cu603   2.011       .  S
O596        C606   1.277       .  A
O596       Cu603   2.006       .  S
O597        C607   1.277       .  A
O597       Cu603   2.006       .  S
O598        C608   1.275       .  A
O598       Cu603   1.999       .  S
O599        C608   1.277       .  A
O599       Cu604   2.009       .  S
O600        C607   1.277       .  A
O600       Cu604   2.006       .  S
O601        C606   1.278       .  A
O601       Cu604   2.012       .  S
O602        C605   1.276       .  A
O602       Cu604   2.007       .  S
Cu603      Cu604   2.377       .  S
C606        C613   1.474       .  S
C607        C693   1.470       .  S
C609        C610   1.407       .  A
C609        C614   1.397       .  A
C609        F627   1.358       .  S
C610        C615   1.483       .  S
C610        C611   1.407       .  A
C611        C612   1.400       .  A
C611        F616   1.358       .  S
C612        C613   1.406   1_545  A
C612        F628   1.358   1_545  S
C613        C614   1.404   1_565  A
C614        F617   1.358   1_545  S
C615        C618   1.405       .  A
C615        C622   1.405       .  A
C618        C619   1.398       .  A
C618        F623   1.357       .  S
C619        C620   1.411       .  A
C619        F625   1.357       .  S
C620        C621   1.410       .  A
C621        C622   1.397       .  A
C621        F624   1.357       .  S
C622        F626   1.357       .  S
C629        C630   1.403   1_556  A
C629        C634   1.398       .  A
C629        F647   1.358       .  S
C630        C635   1.476       .  S
C631        C632   1.399       .  A
C631        F636   1.358       .  S
C632        F648   1.358       .  S
C633        C634   1.406       .  A
C634        F637   1.357       .  S
C635        C638   1.403   1_554  A
C638        C639   1.398       .  A
C638        F643   1.358       .  S
C639        C640   1.409   1_546  A
C639        F645   1.358   1_545  S
C641        C642   1.397   1_565  A
C641        F644   1.358       .  S
C642        F646   1.358       .  S
C649        C650   1.405       .  A
C649        C654   1.400       .  A
C649        F667   1.358       .  S
C650        C655   1.481   1_455  S
C650        C651   1.405       .  A
C651        C652   1.398       .  A
C651        F656   1.358       .  S
C652        C653   1.408       .  A
C652        F668   1.358       .  S
C653        C654   1.409       .  A
C654        F657   1.358       .  S
C655        C658   1.405       .  A
C655        C662   1.403       .  A
C658        C659   1.400       .  A
C658        F663   1.355       .  S
C659        C660   1.409       .  A
C659        F665   1.358       .  S
C660        C661   1.409       .  A
C661        C662   1.396       .  A
C661        F664   1.358       .  S
C662        F666   1.358       .  S
C669        C670   1.403   1_556  A
C669        C674   1.396       .  A
C669        F687   1.355       .  S
C670        C675   1.481   1_455  S
C671        C672   1.400       .  A
C671        F676   1.358       .  S
C672        F688   1.358       .  S
C673        C674   1.410   1_554  A
C674        F677   1.358       .  S
C675        C678   1.406   1_554  A
C678        C679   1.397       .  A
C678        F683   1.358       .  S
C679        F685   1.358       .  S
C680        C681   1.406       .  A
C681        C682   1.399       .  A
C681        F684   1.358       .  S
C682        F686   1.358       .  S
C689        C690   1.406       .  A
C689        C694   1.398       .  A
C689        F707   1.358       .  S
C690        C695   1.480   1_455  S
C690        C691   1.406       .  A
C691        C692   1.399       .  A
C691        F696   1.358       .  S
C692        C693   1.404       .  A
C692        F708   1.358       .  S
C693        C694   1.405       .  A
C694        F697   1.358       .  S
C695        C698   1.404       .  A
C695        C702   1.402       .  A
C698        C699   1.399       .  A
C698        F703   1.357       .  S
C699        C700   1.412       .  A
C699        F705   1.358       .  S
C700        C701   1.413       .  A
C701        C702   1.397       .  A
C701        F704   1.358       .  S
C702        F706   1.358       .  S
C709        C710   1.404       .  A
C709        C714   1.399   1_545  A
C709        F727   1.357       .  S
C710        C715   1.479       .  S
C710        C711   1.403       .  A
C711        C712   1.397       .  A
C711        F716   1.358       .  S
C712        C713   1.411   1_545  A
C712        F728   1.358   1_545  S
C713        C714   1.411       .  A
C714        F717   1.358       .  S
C715        C718   1.405       .  A
C715        C722   1.405       .  A
C718        C719   1.398       .  A
C718        F723   1.358       .  S
C719        C720   1.406       .  A
C719        F725   1.358       .  S
C720        C721   1.406       .  A
C721        C722   1.399       .  A
C721        F724   1.357       .  S
C722        F726   1.357       .  S
C729        C730   1.406       .  A
C729        C734   1.400       .  A
C729        F747   1.358       .  S
C730        C735   1.479   1_655  S
C731        C732   1.397       .  A
C731        F736   1.358       .  S
C732        F748   1.358       .  S
C733        C734   1.405       .  A
C734        F737   1.358       .  S
C735        C738   1.402       .  A
C738        C739   1.398       .  A
C738        F743   1.357       .  S
C739        F745   1.358       .  S
C740        C741   1.411   1_554  A
C741        C742   1.398       .  A
C741        F744   1.358       .  S
C742        F746   1.357       .  S
C749        C750   1.405   1_556  A
C749        C754   1.397       .  A
C749        F767   1.358       .  S
C750        C755   1.478       .  S
C751        C752   1.399       .  A
C751        F756   1.358       .  S
C752        C753   1.407   1_545  A
C752        F768   1.358   1_545  S
C754        F757   1.358   1_545  S
C755        C758   1.403   1_554  A
C758        C759   1.398       .  A
C758        F763   1.357       .  S
C759        F765   1.356       .  S
C760        C761   1.411       .  A
C761        C762   1.398       .  A
C761        F764   1.358       .  S
C762        F766   1.358       .  S
