geometry optimzed in LAMMPS
_audit_creation_date              2020-12-01 
_audit_creation_method            'lammps2cif' 
_symmetry_space_group_name_H-M    'P1' 
_symmetry_Int_Tables_number       1 
_symmetry_cell_setting            triclinic 
loop_ 
_symmetry_equiv_pos_as_xyz 
  x,y,z 
_cell_length_a                    46.95783936 
_cell_length_b                    47.443041258750874 
_cell_length_c                    33.7904432285332 
_cell_angle_alpha                 90.046903218007 
_cell_angle_beta                  90.12018813451887 
_cell_angle_gamma                 90.06232509284695 
loop_ 
_atom_site_label 
_atom_site_type_symbol 
_atom_site_fract_x 
_atom_site_fract_y 
_atom_site_fract_z 
_atom_site_charge 
O1          O  0.96653094  0.06157677  0.19889808    -0.77500
C2          C  0.05827952  0.06636734  0.22860897     0.83600
O3          O  0.99944954  0.97212158  0.16273493    -0.78600
O4          O  0.05913422  0.98224088  0.28195531    -0.80100
O5          O  0.97567358  0.03014368  0.33508551    -0.79900
O6          O  0.93927579  0.04893403  0.24970381    -0.78500
Zn7        Zn  0.00256167  0.03879456  0.20294461     1.55700
O8          O  0.02282470  0.02405990  0.33734551    -0.79900
Cd9        Cd  0.96546871  0.01935208  0.27719429     1.59700
Cd10       Cd  0.00018793  0.97187429  0.22515741     1.59600
O11         O  0.94237583  0.98258854  0.28369425    -0.79900
O12         O  0.00076099  0.01192899  0.24565016    -1.90400
Cd13       Cd  0.03503710  0.01810574  0.27946591     1.59900
O14         O  0.96546297  0.94986118  0.24885475    -0.79800
O15         O  0.06104764  0.05042501  0.25873185    -0.78500
C16         C  0.00354961  0.99303008  0.13954498     0.84000
C17         C  0.94338179  0.06329710  0.21830631     0.83700
O18         O  0.03661987  0.06465649  0.20600792    -0.77400
C19         C  0.99899689  0.02818437  0.35431717     0.84500
O20         O  0.00607564  0.01809580  0.15233970    -0.77500
C21         C  0.94529336  0.95723675  0.27199322     0.84600
C22         C  0.05657279  0.95731747  0.26857476     0.85000
O23         O  0.03602832  0.95011250  0.24584255    -0.80000
O24         O  0.96668471  0.06687109  0.70913341    -0.77500
C25         C  0.05851979  0.06227079  0.72842962     0.83600
O26         O  0.99728219  0.97576199  0.65943905    -0.78600
O27         O  0.05471522  0.97636839  0.78116617    -0.80100
O28         O  0.97555842  0.02235217  0.83852196    -0.79900
O29         O  0.93943523  0.05203275  0.75870549    -0.78500
Zn30       Zn  0.99962926  0.04023546  0.70579075     1.55700
O31         O  0.02314988  0.02278906  0.83749288    -0.79900
Cd32       Cd  0.96389252  0.01817737  0.77948930     1.59700
Cd33       Cd  0.99687744  0.97293282  0.72124598     1.59600
O34         O  0.93888259  0.98262633  0.77999894    -0.79900
O35         O  0.99849478  0.01157373  0.74610798    -1.90400
Cd36       Cd  0.03372761  0.01477357  0.77925058     1.59900
O37         O  0.96119398  0.95129591  0.74173177    -0.79800
O38         O  0.06140072  0.04554731  0.75771355    -0.78500
C39         C  0.99689571  0.99786055  0.63793333     0.84000
C40         C  0.94426763  0.06885245  0.72998564     0.83700
O41         O  0.03605797  0.06232370  0.70728703    -0.77400
C42         C  0.99959525  0.02326338  0.85614032     0.84500
O43         O  0.99719928  0.02250063  0.65266073    -0.77500
C44         C  0.94114367  0.95799999  0.76540167     0.84600
C45         C  0.05097129  0.95254363  0.76443289     0.85000
O46         O  0.03092410  0.94832984  0.73963950    -0.80000
O47         O  0.31516958  0.28471241  0.07713148    -0.77500
C48         C  0.31667324  0.19271328  0.10029841     0.83600
O49         O  0.22644390  0.25439690  0.03083265    -0.78600
O50         O  0.22907166  0.19306717  0.15005953    -0.80100
O51         O  0.27126576  0.27375354  0.20910280    -0.79900
O52         O  0.30287954  0.30962552  0.13033048    -0.78500
Zn53       Zn  0.29156080  0.24949334  0.07660320     1.55700
O54         O  0.27343241  0.22664396  0.20795938    -0.79900
Cd55       Cd  0.26803936  0.28548118  0.15002536     1.59700
Cd56       Cd  0.22365993  0.25116606  0.09226853     1.59600
O57         O  0.23154469  0.31041029  0.14875982    -0.79900
O58         O  0.26267493  0.25056501  0.11693450    -1.90400
Cd59       Cd  0.26684989  0.21568960  0.14959695     1.59900
O60         O  0.20039766  0.28457471  0.11436495    -0.79800
O61         O  0.29916684  0.18939607  0.12875643    -0.78500
C62         C  0.24853538  0.25156428  0.00932520     0.84000
C63         C  0.31788795  0.30632015  0.09914563     0.83700
O64         O  0.31660523  0.21500375  0.07933403    -0.77400
C65         C  0.27268581  0.24997351  0.22665711     0.84500
O66         O  0.27325284  0.24851365  0.02396626    -0.77500
C67         C  0.20643732  0.30592410  0.13567619     0.84600
C68         C  0.20512596  0.19570865  0.13261011     0.85000
O69         O  0.20027701  0.21565282  0.10821519    -0.80000
O70         O  0.31013932  0.28619058  0.57260982    -0.77500
C71         C  0.31307057  0.19451197  0.59980235     0.83600
O72         O  0.22029627  0.25340507  0.53233139    -0.78600
O73         O  0.22656098  0.19376331  0.65264449    -0.80100
O74         O  0.27062760  0.27585956  0.70703483    -0.79900
O75         O  0.29880526  0.30977962  0.62731695    -0.78500
Zn76       Zn  0.28670463  0.25039721  0.57463208     1.55700
O77         O  0.27286074  0.22881270  0.70756273    -0.79900
Cd78       Cd  0.26487817  0.28609956  0.64828823     1.59700
Cd79       Cd  0.21879512  0.25160229  0.59421003     1.59600
O80         O  0.22912849  0.31124285  0.64785818    -0.79900
O81         O  0.25862282  0.25122250  0.61631920    -1.90400
Cd82       Cd  0.26382835  0.21707095  0.65009954     1.59900
O83         O  0.19585127  0.28546208  0.61739569    -0.79800
O84         O  0.29571489  0.19109020  0.62835567    -0.78500
C85         C  0.24171905  0.24968398  0.50971103     0.84000
C86         C  0.31323172  0.30726331  0.59560623     0.83700
O87         O  0.31265444  0.21661801  0.57844289    -0.77400
C88         C  0.27319049  0.25252260  0.72529223     0.84500
O89         O  0.26690975  0.24718928  0.52302863    -0.80700
C90         C  0.20347837  0.30720919  0.63701076     0.84600
C91         C  0.20243701  0.19566733  0.63549506     0.85000
O92         O  0.19673527  0.21550592  0.61126949    -0.80000
O93         O  0.18540293  0.71384494  0.34081652    -0.77500
C94         C  0.18028486  0.80599751  0.36140202     0.83600
O95         O  0.27182364  0.74772515  0.29141171    -0.78600
O96         O  0.26950556  0.81170181  0.40553751    -0.80100
O97         O  0.22578945  0.73210896  0.47086585    -0.79900
O98         O  0.19950525  0.69195698  0.39558852    -0.78500
Zn99       Zn  0.20751550  0.75011057  0.33921652     1.55700
O100        O  0.22898758  0.77913366  0.46803925    -0.79900
Cd101      Cd  0.23248716  0.71835263  0.41377931     1.59700
Cd102      Cd  0.27566691  0.75092367  0.35284688     1.59600
O103        O  0.26981875  0.69486066  0.41554714    -0.79900
O104        O  0.23709763  0.75181592  0.37841249    -1.90400
Cd105      Cd  0.23290688  0.78789879  0.40862894     1.59900
O106        O  0.29958848  0.71803045  0.37566002    -0.79800
O107        O  0.19883724  0.81198565  0.38776792    -0.78500
C108        C  0.24924046  0.75012544  0.27063700     0.84000
C109        C  0.18400499  0.69313768  0.36462597     0.83700
O110        O  0.18075274  0.78271149  0.34277408    -0.77400
C111        C  0.22659618  0.75624915  0.48741862     0.84500
O112        O  0.22474534  0.75218069  0.28619735    -0.77500
C113        C  0.29432144  0.69818881  0.39999721     0.84600
C114        C  0.29351736  0.80821418  0.38884416     0.85000
O115        O  0.29874145  0.78691323  0.36701981    -0.80000
O116        O  0.18482975  0.71399792  0.83577035    -0.77500
C117        C  0.17627824  0.80444784  0.86448118     0.83600
O118        O  0.27095445  0.76131886  0.79399524    -0.78600
O119        O  0.26099997  0.80789662  0.92356608    -0.80100
O120        O  0.22849749  0.72148988  0.96751486    -0.79900
O121        O  0.20073424  0.68766855  0.88562139    -0.78500
Zn122      Zn  0.20570917  0.75051963  0.83820736     1.55700
O123        O  0.21622601  0.76700573  0.97072713    -0.79900
Cd124      Cd  0.23315021  0.71375006  0.90750155     1.59700
Cd125      Cd  0.27332485  0.75619856  0.85532398     1.59600
O126        O  0.27155148  0.69253606  0.90157826    -0.79900
O127        O  0.23439334  0.75063260  0.87878849    -1.90400
Cd128      Cd  0.22554526  0.78246439  0.91544791     1.59900
O129        O  0.29990891  0.72234380  0.86911086    -0.79800
O130        O  0.19263171  0.80757307  0.89432331    -0.78500
C131        C  0.24893199  0.75850570  0.77222194     0.84000
C132        C  0.18468407  0.69121085  0.85548380     0.83700
O133        O  0.17826134  0.78308951  0.84183337    -0.77400
C134        C  0.22122686  0.74333214  0.98706141     0.84500
O135        O  0.22440590  0.75406789  0.78660418    -0.77500
C136        C  0.29576773  0.69910706  0.88722853     0.84600
C137        C  0.28543232  0.80844065  0.90727011     0.85000
O138        O  0.29248207  0.79105669  0.88024754    -0.80000
O139        O  0.53369171  0.93178120  0.95707132    -0.77500
C140        C  0.44184350  0.93480666  0.97717427     0.83600
O141        O  0.50582379  0.02111615  0.90472379    -0.78600
O142        O  0.44289829  0.02253978  0.02257420    -0.80100
O143        O  0.52320559  0.97345239  0.08239331    -0.79900
O144        O  0.56135348  0.94962670  0.00427724    -0.78500
Zn145      Zn  0.49986411  0.95779695  0.95321258     1.55700
O146        O  0.47606022  0.98014499  0.08259917    -0.79900
Cd147      Cd  0.53521289  0.98178285  0.02508509     1.59700
Cd148      Cd  0.50268006  0.02610371  0.96615011     1.59600
O149        O  0.55851073  0.01861965  0.02899793    -0.79900
O150        O  0.50059621  0.98771626  0.99166602    -1.90400
Cd151      Cd  0.46503518  0.98501274  0.02405474     1.59900
O152        O  0.53719717  0.04915235  0.98848977    -0.79800
O153        O  0.43810612  0.95249576  0.00513934    -0.78500
C154        C  0.50318310  0.99868403  0.88407526     0.84000
C155        C  0.55657613  0.93142135  0.97730814     0.83700
O156        O  0.46443270  0.93479930  0.95654241    -0.77400
C157        C  0.49956507  0.97584368  0.10047511     0.84500
O158        O  0.50017655  0.97450102  0.89964474    -0.77500
C159        C  0.55647755  0.04310602  0.01380913     0.84600
C160        C  0.44627396  0.04602583  0.00493332     0.85000
O161        O  0.46686215  0.05025460  0.98098067    -0.80000
O162        O  0.53188677  0.93621408  0.45284110    -0.77500
C163        C  0.43994938  0.94144801  0.47327786     0.83600
O164        O  0.50131341  0.02782722  0.40459291    -0.78600
O165        O  0.44328434  0.02658330  0.52574573    -0.80100
O166        O  0.52421894  0.97873825  0.58048626    -0.79900
O167        O  0.56045792  0.95267756  0.49999393    -0.78500
Zn168      Zn  0.49879921  0.96298649  0.45033815     1.55700
O169        O  0.47658971  0.97951252  0.58127379    -0.79900
Cd170      Cd  0.53527239  0.98549990  0.52224182     1.59700
Cd171      Cd  0.50119138  0.03094911  0.46617342     1.59600
O172        O  0.55908764  0.02177829  0.52479848    -0.79900
O173        O  0.50009849  0.99204205  0.49020653    -1.90400
Cd174      Cd  0.46522650  0.98876425  0.52376790     1.59900
O175        O  0.53664144  0.05326163  0.48693028    -0.79800
O176        O  0.43744126  0.95842051  0.50228186    -0.78500
C177        C  0.50177335  0.00567849  0.38316068     0.84000
C178        C  0.55506449  0.93512307  0.47230594     0.83700
O179        O  0.46226766  0.94090766  0.45196839    -0.77400
C180        C  0.50055297  0.97756809  0.59880035     0.84500
O181        O  0.50120761  0.98102241  0.39776336    -0.77500
C182        C  0.55670562  0.04652509  0.51068317     0.84600
C183        C  0.44615964  0.05022049  0.50829522     0.85000
O184        O  0.46622767  0.05475679  0.48373417    -0.80000
O185        O  0.82035275  0.78338693  0.34297247    -0.77500
C186        C  0.81808577  0.69340623  0.35200506     0.83600
O187        O  0.72635142  0.75047500  0.29361010    -0.78600
O188        O  0.73507159  0.68935216  0.40797096    -0.80100
O189        O  0.77505455  0.77149800  0.46895740    -0.79900
O190        O  0.80373216  0.80961467  0.39231996    -0.78500
Zn191      Zn  0.79264201  0.75138515  0.33607703     1.55700
O192        O  0.77876452  0.72448734  0.46725928    -0.79900
Cd193      Cd  0.76990769  0.78414163  0.41113760     1.59700
Cd194      Cd  0.72451625  0.74982195  0.35556052     1.59600
O195        O  0.73341666  0.80823650  0.41214285    -0.79900
O196        O  0.76456277  0.74985580  0.37745775    -1.90400
Cd197      Cd  0.77148475  0.71439226  0.40828305     1.59900
O198        O  0.70163126  0.78499358  0.37542184    -0.79800
O199        O  0.80465493  0.69038469  0.38453481    -0.78500
C200        C  0.74783052  0.75529085  0.27146402     0.84000
C201        C  0.82171449  0.80525254  0.36472593     0.83700
O202        O  0.81466414  0.71512243  0.33045478    -0.77400
C203        C  0.77777444  0.74776233  0.48618933     0.84500
O204        O  0.77296526  0.75742892  0.28514218    -0.77500
C205        C  0.70844191  0.80562152  0.39786118     0.84600
C206        C  0.70963394  0.69280679  0.39558941     0.85000
O207        O  0.70219808  0.71451247  0.37576638    -0.80000
O208        O  0.82318283  0.77993980  0.84183859    -0.77500
C209        C  0.81938596  0.69097443  0.86672843     0.83600
O210        O  0.73138452  0.75587039  0.79291582    -0.78600
O211        O  0.73321410  0.69173712  0.90692267    -0.80100
O212        O  0.78282252  0.77290740  0.96976308    -0.79900
O213        O  0.80693829  0.80835740  0.88912220    -0.78500
Zn214      Zn  0.79586170  0.74729833  0.83935343     1.55700
O215        O  0.77097732  0.72730104  0.97149649    -0.79900
Cd216      Cd  0.77422601  0.78410094  0.91210630     1.59700
Cd217      Cd  0.72776895  0.75274859  0.85480580     1.59600
O218        O  0.73792072  0.80848944  0.91677279    -0.79900
O219        O  0.76682015  0.74991692  0.87915130    -1.90400
Cd220      Cd  0.76959343  0.71555962  0.91279631     1.59900
O221        O  0.70594217  0.78706106  0.87819535    -0.79800
O222        O  0.80409254  0.69008483  0.89782157    -0.78500
C223        C  0.75347719  0.75214643  0.77149893     0.84000
C224        C  0.82443774  0.80284968  0.86139874     0.83700
O225        O  0.81757327  0.71116841  0.84217362    -0.77400
C226        C  0.77717844  0.75040572  0.98871678     0.84500
O227        O  0.77799092  0.74809953  0.78636327    -0.77500
C228        C  0.71282829  0.80641027  0.90268694     0.84600
C229        C  0.70886269  0.69583509  0.89135223     0.85000
O230        O  0.70324686  0.71771214  0.87076099    -0.80000
O231        O  0.68154522  0.22058794  0.08290765    -0.77500
C232        C  0.68775317  0.31181609  0.10414229     0.83600
O233        O  0.77644275  0.25118340  0.04007201    -0.78600
O234        O  0.77292260  0.30628688  0.16006960    -0.80100
O235        O  0.72531472  0.22692987  0.21445777    -0.79900
O236        O  0.69516917  0.19294297  0.13265347    -0.78500
Zn237      Zn  0.70941042  0.25300789  0.08205210     1.55700
O238        O  0.72535876  0.27412371  0.21444659    -0.79900
Cd239      Cd  0.72967807  0.21578118  0.15559890     1.59700
Cd240      Cd  0.77749514  0.24781471  0.10189848     1.59600
O241        O  0.76436982  0.18913226  0.15621631    -0.79900
O242        O  0.73757055  0.25046540  0.12366152    -1.90400
Cd243      Cd  0.73403742  0.28536552  0.15671080     1.59900
O244        O  0.79672278  0.20978287  0.11776254    -0.79800
O245        O  0.70317679  0.31315369  0.13522052    -0.78500
C246        C  0.75460487  0.25026533  0.01751271     0.84000
C247        C  0.67891708  0.19811429  0.10316322     0.83700
O248        O  0.68829861  0.29031884  0.08151967    -0.77400
C249        C  0.72453909  0.25054727  0.23245983     0.84500
O250        O  0.72937120  0.25012347  0.03095784    -0.77500
C251        C  0.78895271  0.18972324  0.14047098     0.84600
C252        C  0.79811030  0.30011976  0.14894464     0.85000
O253        O  0.80332065  0.27871185  0.12727278    -0.80000
O254        O  0.68256173  0.22204396  0.58244777    -0.77500
C255        C  0.68444724  0.31095321  0.61136302     0.83600
O256        O  0.77422260  0.24799214  0.53852687    -0.78600
O257        O  0.77045712  0.30989233  0.65254750    -0.80100
O258        O  0.72103941  0.22868430  0.71480767    -0.79900
O259        O  0.69595379  0.19394177  0.63181198    -0.78500
Zn260      Zn  0.70905912  0.25515537  0.58332188     1.55700
O261        O  0.73205908  0.27452806  0.71630717    -0.79900
Cd262      Cd  0.72902900  0.21750546  0.65650700     1.59700
Cd263      Cd  0.77659610  0.24885366  0.60063140     1.59600
O264        O  0.76498527  0.19231012  0.66005735    -0.79900
O265        O  0.73725092  0.25182304  0.62413760    -1.90400
Cd266      Cd  0.73404112  0.28624208  0.65775849     1.59900
O267        O  0.79746789  0.21325610  0.62194846    -0.79800
O268        O  0.69980635  0.31210578  0.64245593    -0.78500
C269        C  0.75245401  0.25263471  0.51676762     0.84000
C270        C  0.68003306  0.19932561  0.60209734     0.83700
O271        O  0.68648288  0.29065271  0.58699681    -0.77400
C272        C  0.72618649  0.25143556  0.73368399     0.84500
O273        O  0.72783191  0.25626726  0.53131144    -0.77500
C274        C  0.79003557  0.19369801  0.64571699     0.84600
C275        C  0.79512628  0.30541316  0.63836790     0.85000
O276        O  0.80118755  0.28318891  0.61880793    -0.80000
O277        O  0.47177233  0.46374210  0.04764847    -0.77500
C278        C  0.55972734  0.46182585  0.01451599     0.83600
O279        O  0.49681983  0.55733688  0.07871106    -0.78600
O280        O  0.56071405  0.54578820  0.96764236    -0.80100
O281        O  0.47664027  0.49717596  0.90844327    -0.79900
O282        O  0.44622552  0.46860149  0.99251170    -0.78500
Zn283      Zn  0.50517464  0.49015708  0.04266115     1.55700
O284        O  0.52309007  0.50726122  0.90575595    -0.79900
Cd285      Cd  0.46633787  0.50372663  0.96750109     1.59700
Cd286      Cd  0.49784425  0.55546226  0.01608185     1.59600
O287        O  0.43783907  0.53720739  0.96538111    -0.79900
O288        O  0.50114382  0.51496193  0.99811316    -1.90400
Cd289      Cd  0.53565315  0.50998652  0.96441076     1.59900
O290        O  0.46149663  0.57386629  0.99098058    -0.79800
O291        O  0.56010443  0.47501181  0.98158884    -0.78500
C292        C  0.50265193  0.53753645  0.10309939     0.84000
C293        C  0.45085767  0.45665256  0.02577211     0.83700
O294        O  0.54079575  0.46675341  0.04047362    -0.77400
C295        C  0.49936749  0.50190333  0.88889531     0.84500
O296        O  0.50701766  0.51242247  0.09168109    -0.77500
C297        C  0.43989514  0.56347494  0.97305809     0.84600
C298        C  0.55605543  0.57112214  0.97850441     0.85000
O299        O  0.53305475  0.57839386  0.99586698    -0.80000
O300        O  0.46422889  0.45864016  0.53338982    -0.77500
C301        C  0.55359287  0.45599577  0.51725272     0.83600
O302        O  0.50023492  0.54944392  0.58112610    -0.78600
O303        O  0.56123664  0.53952310  0.46837170    -0.80100
O304        O  0.47673834  0.50770090  0.40324815    -0.79900
O305        O  0.44315794  0.46838537  0.47601532    -0.78500
Zn306      Zn  0.49766125  0.48445474  0.53872478     1.55700
O307        O  0.52391859  0.50169708  0.40522137    -0.79900
Cd308      Cd  0.46483342  0.50578193  0.46235160     1.59700
Cd309      Cd  0.49937146  0.55093944  0.51877858     1.59600
O310        O  0.43690218  0.53880275  0.47056733    -0.79900
O311        O  0.49909367  0.51155972  0.49662746    -1.90400
Cd312      Cd  0.53427364  0.50478199  0.46480575     1.59900
O313        O  0.46257811  0.57240378  0.50041485    -0.79800
O314        O  0.55629444  0.46938197  0.48473898    -0.78500
C315        C  0.49642538  0.52826383  0.60387419     0.84000
C316        C  0.44509365  0.45375657  0.50759308     0.83700
O317        O  0.53311460  0.46083097  0.54089429    -0.77400
C318        C  0.50079127  0.50545505  0.38605352     0.84500
O319        O  0.49400506  0.50337333  0.59050195    -0.77500
C320        C  0.43975552  0.56389411  0.48346283     0.84600
C321        C  0.55765779  0.56485665  0.48008331     0.85000
O322        O  0.53512257  0.57264135  0.49817845    -0.80000
O323        O  0.03890462  0.53508256  0.30455781    -0.77500
C324        C  0.94972667  0.54083932  0.28417585     0.83600
O325        O  0.00559758  0.44220719  0.34127254    -0.78600
O326        O  0.94033129  0.45808067  0.23512090    -0.80100
O327        O  0.02428881  0.49514304  0.16932608    -0.79900
O328        O  0.05781973  0.52943841  0.24484241    -0.78500
Zn329      Zn  0.00446621  0.50969888  0.30605049     1.55700
O330        O  0.97679535  0.49339173  0.17016706    -0.79900
Cd331      Cd  0.03649995  0.49299800  0.22783724     1.59700
Cd332      Cd  0.00367474  0.44375436  0.27886345     1.59600
O333        O  0.06499169  0.46013061  0.23085556    -0.79900
O334        O  0.00290215  0.48444736  0.26155906    -1.90400
Cd335      Cd  0.96755159  0.49207153  0.23038364     1.59900
O336        O  0.04011318  0.42410696  0.25583118    -0.79800
O337        O  0.94667375  0.52834178  0.25090584    -0.78500
C338        C  0.00663209  0.46236187  0.36641777     0.84000
C339        C  0.05706441  0.54180524  0.27828682     0.83700
O340        O  0.96979296  0.53447694  0.30792933    -0.77400
C341        C  0.00038222  0.49391017  0.15151720     0.84500
O342        O  0.00629945  0.48807883  0.35607878    -0.77500
C343        C  0.06257321  0.43416401  0.23975769     0.84600
C344        C  0.94370830  0.43207457  0.24336197     0.85000
O345        O  0.96691013  0.42266312  0.25827593    -0.80000
O346        O  0.03444254  0.53414103  0.80392867    -0.77500
C347        C  0.94523651  0.54039741  0.77794566     0.83600
O348        O  0.99619412  0.44436236  0.84357319    -0.78600
O349        O  0.93858746  0.45619846  0.72888966    -0.80100
O350        O  0.02367767  0.49330570  0.66754192    -0.79900
O351        O  0.05736334  0.52669885  0.74729215    -0.78500
Zn352      Zn  0.99950024  0.51035174  0.80364754     1.55700
O353        O  0.97615366  0.49357144  0.66813846    -0.79900
Cd354      Cd  0.03443066  0.49136986  0.72740105     1.59700
Cd355      Cd  0.99903647  0.44467951  0.78142335     1.59600
O356        O  0.06072895  0.45657373  0.73109018    -0.79900
O357        O  0.99961429  0.48430992  0.76028521    -1.90400
Cd358      Cd  0.96501403  0.49100901  0.72722023     1.59900
O359        O  0.03559311  0.42370454  0.76311358    -0.79800
O360        O  0.94247908  0.52637307  0.74593772    -0.78500
C361        C  0.99748694  0.46529251  0.86728535     0.84000
C362        C  0.05484851  0.53940519  0.78044792     0.83700
O363        O  0.96538583  0.53559213  0.80223317    -0.77400
C364        C  0.99974062  0.49292413  0.64955076     0.84500
O365        O  0.99918071  0.49048911  0.85497874    -0.77500
C366        C  0.05762410  0.43148084  0.74391191     0.84600
C367        C  0.94268377  0.43058623  0.73873928     0.85000
O368        O  0.96486633  0.42268692  0.75749328    -0.80000
C369        C  0.98588934  0.47818756  0.53945144     0.17000
C370        C  0.97371689  0.47189126  0.50259312    -0.32100
C371        C  0.99213706  0.46511635  0.47141964     0.21400
C372        C  0.02141543  0.46449797  0.47665860     0.03600
C373        C  0.03361649  0.47058942  0.51369654    -0.21800
C374        C  0.01515426  0.47757054  0.54487928     0.12700
S375        S  0.96705810  0.48676427  0.58084185    -0.05400
C376        C  0.99889110  0.48952408  0.60610058    -0.08900
C377        C  0.02278293  0.48416481  0.58308849    -0.25500
S378        S  0.04007852  0.45861544  0.43404158    -0.02700
C379        C  0.00809895  0.45688669  0.40902069    -0.16200
C380        C  0.98440924  0.46065432  0.43277625    -0.14200
H381        H  0.95089396  0.47269394  0.49823821     0.21200
H382        H  0.05647525  0.47048989  0.51780200     0.17300
H383        H  0.04446633  0.48413436  0.59402288     0.19800
H384        H  0.96282367  0.46248615  0.42174830     0.13100
C385        C  0.98456539  0.46213227  0.97863748     0.17000
C386        C  0.97235601  0.46222029  0.01661572    -0.32100
C387        C  0.98764950  0.47556158  0.04724738     0.21400
C388        C  0.01403936  0.48775726  0.04039959     0.03600
C389        C  0.02611514  0.48771867  0.00267026    -0.21800
C390        C  0.01074484  0.47482459  0.97213313     0.12700
S391        S  0.96885855  0.44909033  0.93653145    -0.05400
C392        C  0.99776093  0.46136732  0.91029304    -0.08900
C393        C  0.01833302  0.47445679  0.93318485    -0.25500
S394        S  0.02992942  0.50187918  0.08117854    -0.02700
C395        C  0.00063562  0.49168287  0.10809915    -0.16200
C396        C  0.97964653  0.47802649  0.08621201    -0.14200
H397        H  0.95174682  0.45273438  0.02191279     0.21200
H398        H  0.04652489  0.49760212  0.99724636     0.17300
H399        H  0.03713365  0.48471134  0.92147795     0.19800
H400        H  0.96023443  0.46935716  0.09844455     0.13100
C401        C  0.48350232  0.50358821  0.77758201     0.17000
C402        C  0.47166055  0.50112252  0.73968542    -0.32100
C403        C  0.48465639  0.51617245  0.70892090     0.21400
C404        C  0.50812447  0.53332095  0.71545755     0.03600
C405        C  0.52014450  0.53559038  0.75337769    -0.21800
C406        C  0.50743592  0.52011035  0.78408147     0.12700
S407        S  0.47032837  0.48771388  0.81906445    -0.05400
C408        C  0.49770285  0.50303038  0.84542459    -0.08900
C409        C  0.51591844  0.51955094  0.82290167    -0.25500
S410        S  0.52128018  0.54893959  0.67358548    -0.02700
C411        C  0.49536199  0.53147363  0.64705141    -0.16200
C412        C  0.47731923  0.51500614  0.66980857    -0.14200
H413        H  0.45327806  0.48787931  0.73433805     0.21200
H414        H  0.53875008  0.54854033  0.75862541     0.17300
H415        H  0.53368138  0.53150172  0.83464111     0.19800
H416        H  0.46062297  0.50166499  0.65797511     0.13100
C417        C  0.49190536  0.54337128  0.21474312     0.17000
C418        C  0.47977383  0.54437725  0.25272669    -0.32100
C419        C  0.49270118  0.52823996  0.28274707     0.21400
C420        C  0.51695264  0.51241967  0.27549466     0.03600
C421        C  0.52907125  0.51152452  0.23778772    -0.21800
C422        C  0.51589334  0.52713732  0.20777300     0.12700
S423        S  0.47798247  0.55874617  0.17296392    -0.05400
C424        C  0.50433540  0.54230640  0.14605079    -0.08900
C425        C  0.52320468  0.52670811  0.16875274    -0.25500
S426        S  0.53007662  0.49500626  0.31572739    -0.02700
C427        C  0.50239876  0.50877212  0.34281469    -0.16200
C428        C  0.48402397  0.52595222  0.32140301    -0.14200
H429        H  0.46075345  0.55656693  0.25838739     0.21200
H430        H  0.54766239  0.49874405  0.23189129     0.17300
H431        H  0.54015033  0.51381250  0.15677855     0.19800
H432        H  0.46598550  0.53702408  0.33382718     0.13100
C433        C  0.84271903  0.36680071  0.66922107     0.17000
C434        C  0.85321740  0.39266684  0.68279651    -0.32100
C435        C  0.88084810  0.39317106  0.69838151     0.21400
C436        C  0.89736999  0.36900918  0.70050396     0.03600
C437        C  0.88706151  0.34316912  0.68615338    -0.21800
C438        C  0.85938503  0.34268256  0.67036789     0.12700
S439        S  0.80887273  0.36151271  0.65260788    -0.05400
C440        C  0.81723746  0.32646318  0.64663640    -0.08900
C441        C  0.84497151  0.31944317  0.65670429    -0.25500
S442        S  0.93022479  0.37416686  0.72111960    -0.02700
C443        C  0.92172819  0.40934071  0.72609668    -0.16200
C444        C  0.89473287  0.41636694  0.71281643    -0.14200
H445        H  0.84023136  0.41149847  0.68186116     0.21200
H446        H  0.89988067  0.32425002  0.68768322     0.17300
H447        H  0.85347881  0.29823919  0.65649891     0.19800
H448        H  0.88591901  0.43745116  0.71305046     0.13100
C449        C  0.63188097  0.37245325  0.59897994     0.17000
C450        C  0.61268253  0.39487211  0.60348089    -0.32100
C451        C  0.60068078  0.40642722  0.56898298     0.21400
C452        C  0.60784850  0.39652925  0.53168621     0.03600
C453        C  0.62663455  0.37387461  0.52725045    -0.21800
C454        C  0.63819675  0.36201378  0.56169009     0.12700
S455        S  0.64925490  0.35561413  0.63682829    -0.05400
C456        C  0.66443644  0.33384124  0.60192177    -0.08900
C457        C  0.65656033  0.33973272  0.56325041    -0.25500
S458        S  0.59175366  0.41395149  0.49347164    -0.02700
C459        C  0.57450746  0.43427801  0.52810807    -0.16200
C460        C  0.58125179  0.42791569  0.56710817    -0.14200
H461        H  0.60731940  0.40290599  0.63246867     0.21200
H462        H  0.63197513  0.36581766  0.49826379     0.17300
H463        H  0.66422445  0.32850297  0.53750337     0.19800
H464        H  0.57250422  0.43856748  0.59266068     0.13100
C465        C  0.75974489  0.26069265  0.90600835     0.17000
C466        C  0.76269742  0.27177181  0.86778399    -0.32100
C467        C  0.74574911  0.26002760  0.83767309     0.21400
C468        C  0.72713017  0.23793747  0.84502819     0.03600
C469        C  0.72401146  0.22707733  0.88316109    -0.21800
C470        C  0.74057979  0.23905774  0.91325901     0.12700
S471        S  0.77694751  0.27290092  0.94740718    -0.05400
C472        C  0.75741279  0.24904031  0.97446833    -0.08900
C473        C  0.73920123  0.23233397  0.95235226    -0.25500
S474        S  0.70972082  0.22544891  0.80425000    -0.02700
C475        C  0.72731381  0.25059493  0.77701042    -0.16200
C476        C  0.74561011  0.26767071  0.79866425    -0.14200
H477        H  0.77728872  0.28892892  0.86184626     0.21200
H478        H  0.70919309  0.21011912  0.88917967     0.17300
H479        H  0.72455495  0.21702352  0.96465352     0.19800
H480        H  0.75908760  0.28391077  0.78617154     0.13100
C481        C  0.72413795  0.26336078  0.34376419     0.17000
C482        C  0.72011082  0.27374177  0.38202123    -0.32100
C483        C  0.73736236  0.26280556  0.41212306     0.21400
C484        C  0.75817657  0.24279536  0.40470472     0.03600
C485        C  0.76211600  0.23223461  0.36631435    -0.21800
C486        C  0.74433678  0.24273379  0.33624294     0.12700
S487        S  0.70594574  0.27474002  0.30304754    -0.05400
C488        C  0.72509639  0.25083938  0.27572289    -0.08900
C489        C  0.74467364  0.23515134  0.29715310    -0.25500
S490        S  0.77613327  0.23172395  0.44610080    -0.02700
C491        C  0.75458232  0.25364244  0.47347163    -0.16200
C492        C  0.73526817  0.26908836  0.45133756    -0.14200
H493        H  0.70403404  0.28949742  0.38815067     0.21200
H494        H  0.77800257  0.21628759  0.36025219     0.17300
H495        H  0.75934130  0.22007284  0.28440943     0.19800
H496        H  0.71953054  0.28329170  0.46361935     0.13100
C497        C  0.87618912  0.39243412  0.21080801     0.17000
C498        C  0.84903848  0.38522440  0.19678496    -0.32100
C499        C  0.84417729  0.35709585  0.18607672     0.21400
C500        C  0.86545616  0.33696004  0.18896821     0.03600
C501        C  0.89256964  0.34407994  0.20377742    -0.21800
C502        C  0.89742287  0.37232533  0.21466774     0.12700
S503        S  0.88650354  0.42578648  0.22287655    -0.05400
C504        C  0.91988735  0.41278610  0.23376356    -0.08900
C505        C  0.92257723  0.38384404  0.22832189    -0.25500
S506        S  0.85534041  0.30419900  0.17290162    -0.02700
C507        C  0.82201503  0.31778855  0.16283962    -0.16200
C508        C  0.81916277  0.34617834  0.17161015    -0.14200
H509        H  0.83252338  0.40097007  0.19380873     0.21200
H510        H  0.90921255  0.32842332  0.20616862     0.17300
H511        H  0.94211271  0.37212634  0.23248452     0.19800
H512        H  0.79982145  0.35821854  0.16744636     0.13100
C513        C  0.61278237  0.40040771  0.02525936     0.17000
C514        C  0.62950672  0.37611979  0.02034559    -0.32100
C515        C  0.64257679  0.36460353  0.05414798     0.21400
C516        C  0.63966751  0.37704806  0.09104841     0.03600
C517        C  0.62268320  0.40111215  0.09604466    -0.21800
C518        C  0.60912376  0.41224558  0.06241942     0.12700
S519        S  0.59469386  0.41741400  0.98819252    -0.05400
C520        C  0.58134234  0.44012767  0.02336805    -0.08900
C521        C  0.59091058  0.43483293  0.06156192    -0.25500
S522        S  0.65794057  0.36033880  0.12809612    -0.02700
C523        C  0.66904579  0.33580375  0.09378015    -0.16200
C524        C  0.65915720  0.34076777  0.05560989    -0.14200
H525        H  0.63201307  0.36648711  0.99154768     0.21200
H526        H  0.61995507  0.41058956  0.12490509     0.17300
H527        H  0.58461576  0.44675428  0.08741919     0.19800
H528        H  0.66411041  0.32779171  0.03019135     0.13100
C529        C  0.87173169  0.62941676  0.85594948     0.17000
C530        C  0.89130539  0.60745771  0.86120554    -0.32100
C531        C  0.90102512  0.59344363  0.82722807     0.21400
C532        C  0.89139706  0.60056227  0.78972597     0.03600
C533        C  0.87220389  0.62281376  0.78442188    -0.21800
C534        C  0.86287183  0.63714066  0.81831821     0.12700
S535        S  0.85675146  0.64870115  0.89332496    -0.05400
C536        C  0.83904003  0.66780532  0.85768143    -0.08900
C537        C  0.84443008  0.65939810  0.81913128    -0.25500
S538        S  0.90519466  0.58040581  0.75243766    -0.02700
C539        C  0.92477381  0.56276887  0.78768801    -0.16200
C540        C  0.92037578  0.57193472  0.82618642    -0.14200
H541        H  0.89862487  0.60155319  0.89042155     0.21200
H542        H  0.86488953  0.62872097  0.75520342     0.17300
H543        H  0.83489265  0.66877830  0.79309255     0.19800
H544        H  0.93077947  0.56325777  0.85206422     0.13100
C545        C  0.66020377  0.63511181  0.92242583     0.17000
C546        C  0.64905805  0.60947928  0.93586531    -0.32100
C547        C  0.62049326  0.60900411  0.94772097     0.21400
C548        C  0.60377077  0.63306138  0.94689162     0.03600
C549        C  0.61487216  0.65873458  0.93304025    -0.21800
C550        C  0.64339929  0.65909922  0.92049734     0.12700
S551        S  0.69473760  0.64015428  0.90865791    -0.05400
C552        C  0.68650970  0.67489972  0.89945945    -0.08900
C553        C  0.65832664  0.68199941  0.90670453    -0.25500
S554        S  0.56951535  0.62778863  0.96252010    -0.02700
C555        C  0.57769354  0.59265316  0.96907709    -0.16200
C556        C  0.60566953  0.58581331  0.96025532    -0.14200
H557        H  0.66210852  0.59069771  0.93705459     0.21200
H558        H  0.60185605  0.67753819  0.93199114     0.17300
H559        H  0.64967997  0.70306893  0.90413615     0.19800
H560        H  0.61452871  0.56478325  0.96200470     0.13100
C561        C  0.77742950  0.73523888  0.59800144     0.17000
C562        C  0.77941871  0.72430731  0.63632076    -0.32100
C563        C  0.76614564  0.73936176  0.66682145     0.21400
C564        C  0.75122501  0.76405925  0.65972052     0.03600
C565        C  0.74963355  0.77526454  0.62141040    -0.21800
C566        C  0.76325152  0.76036748  0.59092408     0.12700
S567        S  0.79081231  0.71936284  0.55663771    -0.05400
C568        C  0.77769723  0.74721021  0.52960585    -0.08900
C569        C  0.76372716  0.76755215  0.55175748    -0.25500
S570        S  0.73679828  0.77909208  0.70121354    -0.02700
C571        C  0.75163802  0.75207553  0.72821679    -0.16200
C572        C  0.76661286  0.73255398  0.70602786    -0.14200
H573        H  0.79075015  0.70487302  0.64212064     0.21200
H574        H  0.73833398  0.79471316  0.61561268     0.17300
H575        H  0.75330138  0.78596281  0.53955887     0.19800
H576        H  0.77803667  0.71473346  0.71825154     0.13100
C577        C  0.74132078  0.74609723  0.15999113     0.17000
C578        C  0.73793201  0.73473032  0.12199246    -0.32100
C579        C  0.75581412  0.74496703  0.09203619     0.21400
C580        C  0.77557693  0.76612368  0.09922396     0.03600
C581        C  0.77896211  0.77744546  0.13709781    -0.21800
C582        C  0.76162740  0.76673008  0.16717962     0.12700
S583        S  0.72367518  0.73484666  0.20133233    -0.05400
C584        C  0.74470375  0.75747028  0.22847241    -0.08900
C585        C  0.76355153  0.77339176  0.20630672    -0.25500
S586        S  0.79428349  0.77667038  0.05866696    -0.02700
C587        C  0.77574101  0.75186244  0.03187782    -0.16200
C588        C  0.75610000  0.73640306  0.05341013    -0.14200
H589        H  0.72252858  0.71822792  0.11622361     0.21200
H590        H  0.79476271  0.79355458  0.14302116     0.17300
H591        H  0.77917472  0.78778920  0.21857644     0.19800
H592        H  0.74186793  0.72070846  0.04103853     0.13100
C593        C  0.86704054  0.63885838  0.30213023     0.17000
C594        C  0.88246132  0.62186752  0.27566156    -0.32100
C595        C  0.89896396  0.59993017  0.29161925     0.21400
C596        C  0.90039033  0.59552866  0.33215139     0.03600
C597        C  0.88463141  0.61217790  0.35848268    -0.21800
C598        C  0.86778949  0.63375375  0.34252128     0.12700
S599        S  0.84614150  0.66681281  0.28895857    -0.05400
C600        C  0.83777350  0.67120778  0.33830988    -0.08900
C601        C  0.85078996  0.65200763  0.36338323    -0.25500
S602        S  0.92260340  0.56889032  0.34599431    -0.02700
C603        C  0.92958694  0.56295777  0.29663150    -0.16200
C604        C  0.91543524  0.58099135  0.27093581    -0.14200
H605        H  0.88167546  0.62561784  0.24410231     0.21200
H606        H  0.88553131  0.60851827  0.39006081     0.17300
H607        H  0.84819443  0.65162169  0.39519886     0.19800
H608        H  0.91756159  0.58064436  0.23905408     0.13100
C609        C  0.66217909  0.63026650  0.42597164     0.17000
C610        C  0.65092222  0.60390405  0.43661558    -0.32100
C611        C  0.62248681  0.60291983  0.44941767     0.21400
C612        C  0.60615871  0.62716775  0.45218293     0.03600
C613        C  0.61728345  0.65345083  0.44099762    -0.21800
C614        C  0.64552935  0.65436237  0.42746994     0.12700
S615        S  0.69647086  0.63613544  0.41108656    -0.05400
C616        C  0.68810807  0.67131632  0.40579978    -0.08900
C617        C  0.66016132  0.67791547  0.41533371    -0.25500
S618        S  0.57225135  0.62159401  0.46878046    -0.02700
C619        C  0.57976467  0.58606688  0.47091549    -0.16200
C620        C  0.60740233  0.57922986  0.45986893    -0.14200
H621        H  0.66374958  0.58500818  0.43497142     0.21200
H622        H  0.60445307  0.67234495  0.44264625     0.17300
H623        H  0.65134868  0.69898751  0.41482074     0.19800
H624        H  0.61585702  0.55802297  0.45893840     0.13100
C625        C  0.60276765  0.87626447  0.43044940     0.17000
C626        C  0.61443851  0.85369725  0.40899957    -0.32100
C627        C  0.64346759  0.84775444  0.41447413     0.21400
C628        C  0.66007258  0.86365020  0.44012695     0.03600
C629        C  0.64837562  0.88609537  0.46170606    -0.21800
C630        C  0.61935779  0.89198668  0.45632895     0.12700
S631        S  0.56827169  0.88734160  0.42713229    -0.05400
C632        C  0.57615322  0.91341369  0.46113137    -0.08900
C633        C  0.60418564  0.91323027  0.47422210    -0.25500
S634        S  0.69472756  0.85313483  0.44287081    -0.02700
C635        C  0.68691455  0.82682116  0.40926912    -0.16200
C636        C  0.65874556  0.82652553  0.39665095    -0.14200
H637        H  0.60148562  0.84139200  0.38884393     0.21200
H638        H  0.66135334  0.89845456  0.48176989     0.17300
H639        H  0.61316947  0.92826048  0.49490397     0.19800
H640        H  0.64984229  0.81139038  0.37605827     0.13100
C641        C  0.61149083  0.09500941  0.56047455     0.17000
C642        C  0.63235740  0.10684373  0.58511271    -0.32100
C643        C  0.63801514  0.13568725  0.58099932     0.21400
C644        C  0.62355954  0.15201769  0.55350936     0.03600
C645        C  0.60246990  0.14022450  0.52909593    -0.21800
C646        C  0.59680208  0.11133861  0.53322123     0.12700
S647        S  0.60160278  0.06047909  0.56112580    -0.05400
C648        C  0.57719417  0.06798079  0.52441833    -0.08900
C649        C  0.57698737  0.09594440  0.51242268    -0.25500
S650        S  0.63446435  0.18629356  0.55186612    -0.02700
C651        C  0.65872921  0.17858312  0.58869953    -0.16200
C652        C  0.65807300  0.15085575  0.60153997    -0.14200
H653        H  0.64378944  0.09408778  0.60639166     0.21200
H654        H  0.59116217  0.15294232  0.50764806     0.17300
H655        H  0.56280182  0.10462361  0.49028783     0.19800
H656        H  0.67215707  0.14204423  0.62370103     0.13100
C657        C  0.51559957  0.00190432  0.77261593     0.17000
C658        C  0.52665842  0.00510110  0.73442074    -0.32100
C659        C  0.51310516  0.99042941  0.70361245     0.21400
C660        C  0.48933962  0.97371500  0.71030469     0.03600
C661        C  0.47869080  0.97003220  0.74853718    -0.21800
C662        C  0.49245697  0.98437429  0.77934940     0.12700
S663        S  0.52892127  0.01770651  0.81427741    -0.05400
C664        C  0.50345848  0.99984437  0.84085097    -0.08900
C665        C  0.48559852  0.98292328  0.81846696    -0.25500
S666        S  0.47436093  0.95980551  0.66858083    -0.02700
C667        C  0.50086679  0.97607712  0.64199536    -0.16200
C668        C  0.52013711  0.99142570  0.66442215    -0.14200
H669        H  0.54488627  0.01851191  0.72891859     0.21200
H670        H  0.46032654  0.95679113  0.75399775     0.17300
H671        H  0.46883752  0.96975924  0.83042119     0.19800
H672        H  0.53735221  0.00396525  0.65240524     0.13100
C673        C  0.51343745  0.97666047  0.21135509     0.17000
C674        C  0.52501959  0.97433833  0.24929373    -0.32100
C675        C  0.51270454  0.99056355  0.27929073     0.21400
C676        C  0.49014566  0.00869711  0.27200324     0.03600
C677        C  0.47833461  0.01079997  0.23404219    -0.21800
C678        C  0.49034229  0.99413779  0.20412331     0.12700
S679        S  0.52632285  0.95980881  0.17060108    -0.05400
C680        C  0.49993158  0.97604524  0.14367703    -0.08900
C681        C  0.48217369  0.99348380  0.16532901    -0.25500
S682        S  0.47778050  0.02584110  0.31304744    -0.02700
C683        C  0.50278327  0.00767223  0.34011885    -0.16200
C684        C  0.51995630  0.98985084  0.31831264    -0.14200
H685        H  0.54277854  0.96042369  0.25522027     0.21200
H686        H  0.46046726  0.02458077  0.22815894     0.17300
H687        H  0.46531811  0.00629731  0.15288513     0.19800
H688        H  0.53596674  0.97601764  0.33077680     0.13100
C689        C  0.66334391  0.86224014  0.94826429     0.17000
C690        C  0.65123259  0.88500713  0.96875336    -0.32100
C691        C  0.62179024  0.88932812  0.96465774     0.21400
C692        C  0.60515441  0.87155783  0.94159075     0.03600
C693        C  0.61717693  0.84856187  0.92167550    -0.21800
C694        C  0.64662990  0.84451059  0.92526469     0.12700
S695        S  0.69873833  0.85393365  0.94816319    -0.05400
C696        C  0.69096739  0.82646025  0.91640868    -0.08900
C697        C  0.66232151  0.82393521  0.90697958    -0.25500
S698        S  0.57025277  0.88121032  0.93839823    -0.02700
C699        C  0.57802509  0.90964704  0.96832679    -0.16200
C700        C  0.60625760  0.91111874  0.98045611    -0.14200
H701        H  0.66425537  0.89904897  0.98641157     0.21200
H702        H  0.60424684  0.83483618  0.90340009     0.17300
H703        H  0.65341352  0.80781644  0.88792096     0.19800
H704        H  0.61514328  0.92778915  0.99856877     0.13100
C705        C  0.61106796  0.09267509  0.06273243     0.17000
C706        C  0.63229937  0.10478087  0.08657335    -0.32100
C707        C  0.63723327  0.13381840  0.08282416     0.21400
C708        C  0.62174963  0.15009030  0.05638895     0.03600
C709        C  0.60030593  0.13800819  0.03272543    -0.21800
C710        C  0.59536651  0.10891266  0.03649766     0.12700
S711        S  0.60196061  0.05787294  0.06314499    -0.05400
C712        C  0.57655124  0.06505706  0.02763353    -0.08900
C713        C  0.57545982  0.09317568  0.01622370    -0.25500
S714        S  0.63199231  0.18465746  0.05496319    -0.02700
C715        C  0.65732730  0.17718876  0.09056319    -0.16200
C716        C  0.65749381  0.14925607  0.10273266    -0.14200
H717        H  0.64455366  0.09207294  0.10700578     0.21200
H718        H  0.58820505  0.15066800  0.01206399     0.17300
H719        H  0.56062700  0.10171341  0.99481464     0.19800
H720        H  0.67234855  0.14047124  0.12391947     0.13100
C721        C  0.10600744  0.59112004  0.83083993     0.17000
C722        C  0.12182500  0.60702104  0.85811713    -0.32100
C723        C  0.13790737  0.62958958  0.84349620     0.21400
C724        C  0.13795180  0.63617096  0.80349411     0.03600
C725        C  0.12264412  0.61985726  0.77607328    -0.21800
C726        C  0.10677426  0.59708617  0.79065836     0.12700
S727        S  0.08396695  0.56403747  0.84314807    -0.05400
C728        C  0.07606939  0.56021869  0.79359955    -0.08900
C729        C  0.08992403  0.57905893  0.76891973    -0.25500
S730        S  0.15743712  0.66530845  0.79191709    -0.02700
C731        C  0.16613058  0.66833733  0.84134491    -0.16200
C732        C  0.15442546  0.64776152  0.86538655    -0.14200
H733        H  0.12128540  0.60224836  0.88942940     0.21200
H734        H  0.12279569  0.62493116  0.74484687     0.17300
H735        H  0.08703666  0.58014830  0.73716279     0.19800
H736        H  0.15737165  0.64651653  0.89712333     0.13100
C737        C  0.36434971  0.65810078  0.91098095     0.17000
C738        C  0.39187797  0.65000933  0.92277480    -0.32100
C739        C  0.39577362  0.62213780  0.93584895     0.21400
C740        C  0.37345275  0.60298099  0.93594101     0.03600
C741        C  0.34598039  0.61107800  0.92425958    -0.21800
C742        C  0.34191279  0.63911226  0.91235777     0.12700
S743        S  0.35471333  0.69130914  0.89641465    -0.05400
C744        C  0.31993355  0.67970357  0.89354309    -0.08900
C745        C  0.31640969  0.65138837  0.90256604    -0.25500
S746        S  0.38256872  0.57001863  0.95179973    -0.02700
C747        C  0.41669568  0.58224581  0.95966573    -0.16200
C748        C  0.42062918  0.61042322  0.94982998    -0.14200
H749        H  0.40932806  0.66492065  0.92256583     0.21200
H750        H  0.32842142  0.59630284  0.92513666     0.17300
H751        H  0.29610702  0.64056426  0.90312419     0.19800
H752        H  0.44070430  0.62155298  0.95205051     0.13100
C753        C  0.33533090  0.86356061  0.95389462     0.17000
C754        C  0.34874932  0.88424275  0.97718320    -0.32100
C755        C  0.37676326  0.89185658  0.96718572     0.21400
C756        C  0.39068598  0.87928461  0.93560833     0.03600
C757        C  0.37736819  0.85865822  0.91254292    -0.21800
C758        C  0.34946894  0.85120186  0.92236914     0.12700
S759        S  0.30145711  0.85120013  0.96071379    -0.05400
C760        C  0.30663158  0.82924161  0.92063106    -0.08900
C761        C  0.33318442  0.83158807  0.90323979    -0.25500
S762        S  0.42418918  0.89149775  0.92743756    -0.02700
C763        C  0.41964391  0.91409377  0.96685650    -0.16200
C764        C  0.39337291  0.91194281  0.98541285    -0.14200
H765        H  0.33783055  0.89403419  0.00176294     0.21200
H766        H  0.38823395  0.84895704  0.88783619     0.17300
H767        H  0.34034672  0.81935503  0.87810767     0.19800
H768        H  0.38664250  0.92466979  0.01027888     0.13100
C769        C  0.22361269  0.74695808  0.59889655     0.17000
C770        C  0.21925896  0.73696990  0.63712481    -0.32100
C771        C  0.23485839  0.74954900  0.66756678     0.21400
C772        C  0.25423162  0.77106986  0.66072939     0.03600
C773        C  0.25833653  0.78144331  0.62226977    -0.21800
C774        C  0.24239756  0.76894749  0.59162933     0.12700
S775        S  0.20783273  0.73301866  0.55796360    -0.05400
C776        C  0.22623660  0.75737834  0.53056755    -0.08900
C777        C  0.24365147  0.77535579  0.55218793    -0.25500
S778        S  0.27084245  0.78325001  0.70267380    -0.02700
C779        C  0.25077733  0.75940059  0.72908608    -0.16200
C780        C  0.23278219  0.74289162  0.70648290    -0.14200
H781        H  0.20444726  0.71994822  0.64290017     0.21200
H782        H  0.27324404  0.79836364  0.61647709     0.17300
H783        H  0.25754736  0.79116907  0.53949834     0.19800
H784        H  0.21829174  0.72719055  0.71819347     0.13100
C785        C  0.21779858  0.75416938  0.09832157     0.17000
C786        C  0.21297203  0.76466356  0.13629642    -0.32100
C787        C  0.23147428  0.75599013  0.16635394     0.21400
C788        C  0.25405517  0.73789156  0.15920392     0.03600
C789        C  0.25873531  0.72711777  0.12112827    -0.21800
C790        C  0.23992028  0.73552577  0.09101982     0.12700
S791        S  0.19882762  0.76378238  0.05751978    -0.05400
C792        C  0.22063289  0.74215020  0.03026680    -0.08900
C793        C  0.24132847  0.72813595  0.05192356    -0.25500
S794        S  0.27356979  0.72958674  0.20044180    -0.02700
C795        C  0.25037842  0.75006681  0.22736457    -0.16200
C796        C  0.22932606  0.76305202  0.20525288    -0.14200
H797        H  0.19558667  0.77905017  0.14216206     0.21200
H798        H  0.27617618  0.71281210  0.11524451     0.17300
H799        H  0.25771838  0.71485355  0.03930097     0.19800
H800        H  0.21253389  0.77609760  0.21736430     0.13100
C801        C  0.10884954  0.60414383  0.28825769     0.17000
C802        C  0.12593484  0.62807086  0.28270919    -0.32100
C803        C  0.13821334  0.64048308  0.31641219     0.21400
C804        C  0.13417182  0.62930290  0.35388923     0.03600
C805        C  0.11680089  0.60561553  0.35948389    -0.21800
C806        C  0.10408763  0.59353634  0.32589964     0.12700
S807        S  0.09188281  0.58597385  0.25132393    -0.05400
C808        C  0.07751392  0.56447388  0.28718624    -0.08900
C809        C  0.08594599  0.57093539  0.32547845    -0.25500
S810        S  0.15194001  0.64675443  0.39072948    -0.02700
C811        C  0.16442850  0.66976303  0.35538089    -0.16200
C812        C  0.15527633  0.66391548  0.31716338    -0.14200
H813        H  0.12942725  0.63668942  0.25345951     0.21200
H814        H  0.11327118  0.59702391  0.38874171     0.17300
H815        H  0.07909198  0.55968160  0.35166149     0.19800
H816        H  0.16129151  0.67585430  0.29118166     0.13100
C817        C  0.37132527  0.60489143  0.46079683     0.17000
C818        C  0.34343852  0.61297417  0.45114152    -0.32100
C819        C  0.33925574  0.64045218  0.43701055     0.21400
C820        C  0.36186657  0.65899671  0.43248933     0.03600
C821        C  0.38964385  0.65116045  0.44316653    -0.21800
C822        C  0.39381553  0.62371921  0.45751203     0.12700
S823        S  0.38112859  0.57179384  0.47502425    -0.05400
C824        C  0.41586319  0.58348918  0.47724109    -0.08900
C825        C  0.41941932  0.61168818  0.46764424    -0.25500
S826        S  0.35258369  0.69090914  0.41308899    -0.02700
C827        C  0.31776237  0.67942433  0.41191862    -0.16200
C828        C  0.31379071  0.65218700  0.42572267    -0.14200
H829        H  0.32587612  0.59831309  0.45376628     0.21200
H830        H  0.40729060  0.66563627  0.43975495     0.17300
H831        H  0.43978579  0.62232689  0.46596735     0.19800
H832        H  0.29341448  0.64155851  0.42729523     0.13100
C833        C  0.35997950  0.85407398  0.40358318     0.17000
C834        C  0.38738198  0.86572873  0.40354675    -0.32100
C835        C  0.39295199  0.88773558  0.43016548     0.21400
C836        C  0.37225337  0.89771547  0.45579351     0.03600
C837        C  0.34477506  0.88616003  0.45568373    -0.21800
C838        C  0.33918172  0.86418786  0.42895008     0.12700
S839        S  0.34926683  0.82659426  0.37448084    -0.05400
C840        C  0.31632364  0.82880257  0.39657249    -0.08900
C841        C  0.31401732  0.84987377  0.42490082    -0.25500
S842        S  0.38343458  0.92447053  0.48593815    -0.02700
C843        C  0.41629181  0.92228841  0.46351440    -0.16200
C844        C  0.41823213  0.90177681  0.43440155    -0.14200
H845        H  0.40367274  0.85789335  0.38383161     0.21200
H846        H  0.32854940  0.89384717  0.47561299     0.17300
H847        H  0.29520564  0.85395327  0.44243119     0.19800
H848        H  0.43709432  0.89747071  0.41708007     0.13100
C849        C  0.15749046  0.36817385  0.67428121     0.17000
C850        C  0.14691426  0.39418872  0.68717353    -0.32100
C851        C  0.12018525  0.39442289  0.70553563     0.21400
C852        C  0.10481001  0.36982365  0.71145669     0.03600
C853        C  0.11528163  0.34379202  0.69821539    -0.21800
C854        C  0.14180837  0.34362743  0.67912079     0.12700
S855        S  0.18996735  0.36336810  0.65278414    -0.05400
C856        C  0.18210132  0.32799885  0.64932306    -0.08900
C857        C  0.15568220  0.32049176  0.66426333    -0.25500
S858        S  0.07255458  0.37478831  0.73372022    -0.02700
C859        C  0.07952019  0.41047435  0.73390972    -0.16200
C860        C  0.10579659  0.41779034  0.71831119    -0.14200
H861        H  0.15894116  0.41342181  0.68293204     0.21200
H862        H  0.10319479  0.32458092  0.70230131     0.17300
H863        H  0.14769597  0.29910770  0.66588769     0.19800
H864        H  0.11351590  0.43918101  0.71512166     0.13100
C865        C  0.39073938  0.39323070  0.51692499     0.17000
C866        C  0.37128149  0.37104418  0.51141401    -0.32100
C867        C  0.36007908  0.35804366  0.54540636     0.21400
C868        C  0.36753528  0.36702917  0.58309955     0.03600
C869        C  0.38730756  0.38877670  0.58856909    -0.21800
C870        C  0.39879347  0.40143169  0.55470912     0.12700
S871        S  0.40646765  0.41238312  0.47986854    -0.05400
C872        C  0.42454400  0.43101446  0.51585662    -0.08900
C873        C  0.41833846  0.42278707  0.55424539    -0.25500
S874        S  0.35063405  0.34963622  0.62053134    -0.02700
C875        C  0.33386296  0.32941023  0.58517753    -0.16200
C876        C  0.34096880  0.33613743  0.54643456    -0.14200
H877        H  0.36508642  0.36429971  0.48205302     0.21200
H878        H  0.39338709  0.39562581  0.61793485     0.17300
H879        H  0.42742878  0.43223782  0.58056791     0.19800
H880        H  0.33219909  0.32591391  0.52048446     0.13100
C881        C  0.35785559  0.12827348  0.58025659     0.17000
C882        C  0.36894392  0.10088928  0.57846188    -0.32100
C883        C  0.39100944  0.09574900  0.55149152     0.21400
C884        C  0.40164144  0.11689804  0.52737595     0.03600
C885        C  0.39043888  0.14427580  0.52901257    -0.21800
C886        C  0.36831988  0.14940487  0.55596158     0.12700
S887        S  0.33082356  0.13867583  0.61067225    -0.05400
C888        C  0.33334241  0.17182184  0.59013826    -0.08900
C889        C  0.35432937  0.17445582  0.56148793    -0.25500
S890        S  0.42904054  0.10647381  0.49752723    -0.02700
C891        C  0.42619768  0.07325148  0.51784725    -0.16200
C892        C  0.40488231  0.07065549  0.54600778    -0.14200
H893        H  0.36077007  0.08433078  0.59730252     0.21200
H894        H  0.39863161  0.16084253  0.51020465     0.17300
H895        H  0.35874324  0.19352992  0.54503442     0.19800
H896        H  0.40022221  0.05158012  0.56232950     0.13100
C897        C  0.24669482  0.26597426  0.89861557     0.17000
C898        C  0.24529925  0.27820887  0.86092216    -0.32100
C899        C  0.25989069  0.26461909  0.83012253     0.21400
C900        C  0.27495746  0.23988518  0.83645291     0.03600
C901        C  0.27681727  0.22802384  0.87415185    -0.21800
C902        C  0.26240593  0.24163703  0.90485868     0.12700
S903        S  0.23106945  0.27924790  0.94037345    -0.05400
C904        C  0.24651040  0.25199775  0.96622597    -0.08900
C905        C  0.26245255  0.23363617  0.94354073    -0.25500
S906        S  0.28890216  0.22509998  0.79483050    -0.02700
C907        C  0.27454338  0.25267017  0.76855285    -0.16200
C908        C  0.26006733  0.27237958  0.79115396    -0.14200
H909        H  0.23325051  0.29730923  0.85576658     0.21200
H910        H  0.28870933  0.20881451  0.87926301     0.17300
H911        H  0.27445607  0.21597857  0.95515735     0.19800
H912        H  0.24864959  0.29033104  0.77932105     0.13100
C913        C  0.26730873  0.23456789  0.33732429     0.17000
C914        C  0.26738835  0.22225846  0.37490442    -0.32100
C915        C  0.25323377  0.23657781  0.40528828     0.21400
C916        C  0.23909401  0.26178346  0.39862427     0.03600
C917        C  0.23914151  0.27419996  0.36097080    -0.21800
C918        C  0.25385893  0.26014763  0.33068157     0.12700
S919        S  0.28257175  0.22001946  0.29638990    -0.05400
C920        C  0.27124475  0.24896470  0.27003644    -0.08900
C921        C  0.25639812  0.26873024  0.29213398    -0.25500
S922        S  0.22446239  0.27642677  0.44017662    -0.02700
C923        C  0.23835791  0.24870587  0.46670109    -0.16200
C924        C  0.25289266  0.22902514  0.44424674    -0.14200
H925        H  0.27830282  0.20253753  0.38034325     0.21200
H926        H  0.22859685  0.29413167  0.35567074     0.17300
H927        H  0.24670662  0.28760679  0.28017748     0.19800
H928        H  0.26416266  0.21104247  0.45627569     0.13100
C929        C  0.13044220  0.39610702  0.20675446     0.17000
C930        C  0.15796907  0.38911467  0.19403624    -0.32100
C931        C  0.16191315  0.36255955  0.17661266     0.21400
C932        C  0.13937487  0.34395956  0.17169770     0.03600
C933        C  0.11198527  0.35072877  0.18512834    -0.21800
C934        C  0.10810024  0.37714019  0.20295953     0.12700
S935        S  0.12086241  0.42795791  0.22599500    -0.05400
C936        C  0.08645563  0.41548033  0.22953398    -0.08900
C937        C  0.08286316  0.38795761  0.21667414    -0.25500
S938        S  0.14837659  0.31297980  0.14940312    -0.02700
C939        C  0.18309096  0.32476091  0.14772701    -0.16200
C940        C  0.18715482  0.35157788  0.16315434    -0.14200
H941        H  0.17546000  0.40381517  0.19724284     0.21200
H942        H  0.09444244  0.33612582  0.18158849     0.17300
H943        H  0.06261640  0.37706173  0.21531162     0.19800
H944        H  0.20752834  0.36218385  0.16517882     0.13100
C945        C  0.36617201  0.36099018  0.04914987     0.17000
C946        C  0.38021754  0.37851963  0.02205337    -0.32100
C947        C  0.39914118  0.39872670  0.03716764     0.21400
C948        C  0.40428964  0.40097161  0.07747681     0.03600
C949        C  0.38988461  0.38370167  0.10467793    -0.21800
C950        C  0.37046761  0.36385135  0.08958665     0.12700
S951        S  0.34276890  0.33504479  0.03643342    -0.05400
C952        C  0.33793322  0.32837044  0.08610467    -0.08900
C953        C  0.35394414  0.34539346  0.11111104    -0.25500
S954        S  0.42884347  0.42611074  0.08968914    -0.02700
C955        C  0.43162515  0.43424328  0.04006727    -0.16200
C956        C  0.41450907  0.41797399  0.01555554    -0.14200
H957        H  0.37651231  0.37651069  0.99055501     0.21200
H958        H  0.39360467  0.38570088  0.13617077     0.17300
H959        H  0.35377755  0.34408276  0.14308655     0.19800
H960        H  0.41361196  0.41989868  0.98365815     0.13100
C961        C  0.36166836  0.12627134  0.08107623     0.17000
C962        C  0.37318695  0.09901887  0.08015647    -0.32100
C963        C  0.39339799  0.09295638  0.05080220     0.21400
C964        C  0.40201490  0.11313603  0.02370696     0.03600
C965        C  0.39043994  0.14041124  0.02457265    -0.21800
C966        C  0.37006337  0.14643049  0.05380468     0.12700
S967        S  0.33633372  0.13757812  0.11372112    -0.05400
C968        C  0.33675949  0.16981559  0.09021516    -0.08900
C969        C  0.35589126  0.17146235  0.05894566    -0.25500
S970        S  0.42752579  0.10168543  0.99129952    -0.02700
C971        C  0.42645947  0.06928747  0.01439367    -0.16200
C972        C  0.40716136  0.06778099  0.04544163    -0.14200
H973        H  0.36661458  0.08319173  0.10132133     0.21200
H974        H  0.39700510  0.15623241  0.00340028     0.17300
H975        H  0.35880377  0.18980573  0.04033985     0.19800
H976        H  0.40395984  0.04943464  0.06395820     0.13100
C977        C  0.89626612  0.12642877  0.68606961     0.17000
C978        C  0.88434891  0.14794918  0.66293328    -0.32100
C979        C  0.85507305  0.15306142  0.66680997     0.21400
C980        C  0.83841792  0.13748516  0.69264103     0.03600
C981        C  0.85038430  0.11607613  0.71598443    -0.21800
C982        C  0.87967825  0.11094195  0.71210493     0.12700
S983        S  0.93101084  0.11611402  0.68418248    -0.05400
C984        C  0.92323395  0.09056142  0.71884931    -0.08900
C985        C  0.89509685  0.09046412  0.73131360    -0.25500
S986        S  0.80341596  0.14718167  0.69335007    -0.02700
C987        C  0.81127444  0.17268202  0.65865854    -0.16200
C988        C  0.83962926  0.17324965  0.64715881    -0.14200
H989        H  0.89728191  0.16002042  0.64259478     0.21200
H990        H  0.83741254  0.10388340  0.73612945     0.17300
H991        H  0.88615108  0.07550110  0.75202387     0.19800
H992        H  0.84860916  0.18807088  0.62627521     0.13100
C993        C  0.88720276  0.90907370  0.81532173     0.17000
C994        C  0.86612805  0.89714700  0.83936918    -0.32100
C995        C  0.86363826  0.86770931  0.83947032     0.21400
C996        C  0.88143728  0.85088714  0.81683112     0.03600
C997        C  0.90279153  0.86280289  0.79324370    -0.21800
C998        C  0.90509982  0.89225827  0.79283706     0.12700
S999        S  0.89366665  0.94429907  0.81118987    -0.05400
C1000       C  0.92090026  0.93635653  0.77888696    -0.08900
C1001       C  0.92443897  0.90779650  0.77172096    -0.25500
S1002       S  0.87360378  0.81581297  0.81866162    -0.02700
C1003       C  0.84588928  0.82390191  0.85001686    -0.16200
C1004       C  0.84342877  0.85228919  0.85908239    -0.14200
H1005       H  0.85205219  0.91023999  0.85677855     0.21200
H1006       H  0.91662739  0.84973160  0.77543541     0.17300
H1007       H  0.94090833  0.89883476  0.75322675     0.19800
H1008       H  0.82676633  0.86132003  0.87717392     0.13100
C1009       C  0.09275764  0.88447721  0.78572367     0.17000
C1010       C  0.10400702  0.85708246  0.78664369    -0.32100
C1011       C  0.12327017  0.85053137  0.81714530     0.21400
C1012       C  0.13075728  0.87024846  0.84564243     0.03600
C1013       C  0.11954839  0.89758738  0.84468161    -0.21800
C1014       C  0.10059242  0.90423321  0.81398012     0.12700
S1015       S  0.06880983  0.89667073  0.75159419    -0.05400
C1016       C  0.06963866  0.92882049  0.77548129    -0.08900
C1017       C  0.08758671  0.92971410  0.80810540    -0.25500
S1018       S  0.15503720  0.85852996  0.87949874    -0.02700
C1019       C  0.15560412  0.82679616  0.85468898    -0.16200
C1020       C  0.13740979  0.82549475  0.82224665    -0.14200
H1021       H  0.09817929  0.84165638  0.76446298     0.21200
H1022       H  0.12555925  0.91308741  0.86667051     0.17300
H1023       H  0.09041705  0.94785205  0.82717048     0.19800
H1024       H  0.13537149  0.80754656  0.80264969     0.13100
C1025       C  0.13769940  0.14740577  0.65178086     0.17000
C1026       C  0.11100854  0.13417402  0.65112833    -0.32100
C1027       C  0.10514658  0.11443140  0.68091258     0.21400
C1028       C  0.12493787  0.10799040  0.71001595     0.03600
C1029       C  0.15173787  0.12108237  0.71049827    -0.21800
C1030       C  0.15759453  0.14088865  0.68072527     0.12700
S1031       S  0.14845905  0.17284073  0.61928748    -0.05400
C1032       C  0.18017361  0.17476449  0.64491871    -0.08900
C1033       C  0.18210491  0.15635417  0.67674381    -0.25500
S1034       S  0.11354814  0.08341222  0.74349050    -0.02700
C1035       C  0.08180903  0.08174022  0.71786187    -0.16200
C1036       C  0.08039827  0.09949250  0.68527999    -0.14200
H1037       H  0.09541030  0.13922661  0.62863794     0.21200
H1038       H  0.16724391  0.11619971  0.73318288     0.17300
H1039       H  0.20014510  0.15495957  0.69662773     0.19800
H1040       H  0.06230132  0.10118147  0.66553904     0.13100
C1041       C  0.98418629  0.02618177  0.46548216     0.17000
C1042       C  0.97211705  0.02737693  0.50325096    -0.32100
C1043       C  0.98561637  0.01230386  0.53357952     0.21400
C1044       C  0.00986318  0.99637835  0.52675657     0.03600
C1045       C  0.02218525  0.99548270  0.48901549    -0.21800
C1046       C  0.00889565  0.01095267  0.45875929     0.12700
S1047       S  0.97009277  0.04170297  0.42427128    -0.05400
C1048       C  0.99810308  0.02799395  0.39776065    -0.08900
C1049       C  0.01724676  0.01232540  0.42004143    -0.25500
S1050       S  0.02331969  0.98028586  0.56809094    -0.02700
C1051       C  0.99635719  0.99583573  0.59472836    -0.16200
C1052       C  0.97789756  0.01215974  0.57250709    -0.14200
H1053       H  0.95304316  0.03954138  0.50878481     0.21200
H1054       H  0.04132912  0.98342444  0.48351944     0.17300
H1055       H  0.03537669  0.00112973  0.40806576     0.19800
H1056       H  0.96053975  0.02442415  0.58464893     0.13100
C1057       C  0.01538575  0.02009670  0.96697526     0.17000
C1058       C  0.02790157  0.02121866  0.00453806    -0.32100
C1059       C  0.01512214  0.00557148  0.03484321     0.21400
C1060       C  0.99117745  0.98911294  0.02818455     0.03600
C1061       C  0.97850207  0.98812733  0.99053224    -0.21800
C1062       C  0.99100639  0.00425687  0.96029077     0.12700
S1063       S  0.02849601  0.03660841  0.92601256    -0.05400
C1064       C  0.00054119  0.02251088  0.89957347    -0.08900
C1065       C  0.98210058  0.00594900  0.92168189    -0.25500
S1066       S  0.97816738  0.97300912  0.06981191    -0.02700
C1067       C  0.00475909  0.98943876  0.09641610    -0.16200
C1068       C  0.02299862  0.00575594  0.07376255    -0.14200
H1069       H  0.04665617  0.03393741  0.01000403     0.21200
H1070       H  0.95953909  0.97570001  0.98518433     0.17300
H1071       H  0.96416802  0.99440567  0.90961604     0.19800
H1072       H  0.04000747  0.01867746  0.08569030     0.13100
C1073       C  0.83630550  0.13084290  0.18252703     0.17000
C1074       C  0.84886028  0.10991316  0.20614198    -0.32100
C1075       C  0.87728229  0.10270562  0.19831380     0.21400
C1076       C  0.89230496  0.11539996  0.16784981     0.03600
C1077       C  0.87971601  0.13620732  0.14415379    -0.21800
C1078       C  0.85150007  0.14378913  0.15244155     0.12700
S1079       S  0.80265784  0.14367969  0.18864649    -0.05400
C1080       C  0.80926412  0.16713514  0.15072628    -0.08900
C1081       C  0.83611774  0.16463026  0.13407880    -0.25500
S1082       S  0.92655912  0.10398817  0.16321860    -0.02700
C1083       C  0.92088843  0.08217360  0.20323118    -0.16200
C1084       C  0.89359129  0.08359307  0.21880312    -0.14200
H1085       H  0.83718515  0.10010272  0.23003181     0.21200
H1086       H  0.89157707  0.14641516  0.12077135     0.17300
H1087       H  0.84425594  0.17788916  0.11061828     0.19800
H1088       H  0.88610479  0.07135184  0.24372360     0.13100
C1089       C  0.88921418  0.91006698  0.32227138     0.17000
C1090       C  0.86629374  0.89907211  0.34404843    -0.32100
C1091       C  0.86332371  0.86962608  0.34568466     0.21400
C1092       C  0.88251462  0.85200087  0.32675978     0.03600
C1093       C  0.90565836  0.86298352  0.30556366    -0.21800
C1094       C  0.90839710  0.89238395  0.30346557     0.12700
S1095       S  0.89617505  0.94510843  0.31591558    -0.05400
C1096       C  0.92518947  0.93590862  0.28738763    -0.08900
C1097       C  0.92905694  0.90705399  0.28335049    -0.25500
S1098       S  0.87405370  0.81708679  0.32934591    -0.02700
C1099       C  0.84416902  0.82614687  0.35602406    -0.16200
C1100       C  0.84142809  0.85486159  0.36308708    -0.14200
H1101       H  0.85113496  0.91285743  0.35836108     0.21200
H1102       H  0.92045333  0.84921548  0.29049655     0.17300
H1103       H  0.94631190  0.89732516  0.26715171     0.19800
H1104       H  0.82352998  0.86451602  0.37796955     0.13100
C1105       C  0.12187792  0.85251486  0.31679913     0.17000
C1106       C  0.09988611  0.86364473  0.29348427    -0.32100
C1107       C  0.09588728  0.89290083  0.29418369     0.21400
C1108       C  0.11295029  0.91026264  0.31726358     0.03600
C1109       C  0.13481484  0.89911193  0.34083066    -0.21800
C1110       C  0.13887934  0.86984625  0.34001757     0.12700
S1111       S  0.13112795  0.81783109  0.31809279    -0.05400
C1112       C  0.15835899  0.82666878  0.35011460    -0.08900
C1113       C  0.15973272  0.85508754  0.35957715    -0.25500
S1114       S  0.10445768  0.94510098  0.31449150    -0.02700
C1115       C  0.07746610  0.93624530  0.28202685    -0.16200
C1116       C  0.07549801  0.90768779  0.27377420    -0.14200
H1117       H  0.08668003  0.85012315  0.27528553     0.21200
H1118       H  0.14818076  0.91266246  0.35875752     0.17300
H1119       H  0.17589513  0.86460364  0.37817985     0.19800
H1120       H  0.05954301  0.89818116  0.25481768     0.13100
C1121       C  0.12527323  0.11081269  0.20868124     0.17000
C1122       C  0.15286296  0.12211274  0.20734105    -0.32100
C1123       C  0.15862991  0.14250874  0.17836838     0.21400
C1124       C  0.13786089  0.15140163  0.15198928     0.03600
C1125       C  0.11029688  0.13997742  0.15317692    -0.21800
C1126       C  0.10455975  0.11948654  0.18206975     0.12700
S1127       S  0.11413300  0.08554998  0.24121544    -0.05400
C1128       C  0.08124433  0.08638239  0.21848653    -0.08900
C1129       C  0.07926029  0.10553691  0.18752476    -0.25500
S1130       S  0.14892578  0.17711327  0.12005592    -0.02700
C1131       C  0.18196267  0.17581929  0.14238835    -0.16200
C1132       C  0.18399528  0.15628500  0.17284486    -0.14200
H1133       H  0.16910473  0.11532692  0.22797352     0.21200
H1134       H  0.09404352  0.14679500  0.13258523     0.17300
H1135       H  0.06048770  0.10866960  0.16942723     0.19800
H1136       H  0.20279785  0.15292200  0.19080239     0.13100
loop_ 
_geom_bond_atom_site_label_1 
_geom_bond_atom_site_label_2 
_geom_bond_distance 
_geom_bond_site_symmetry_2 
_ccdc_geom_bond_type 
O1           C17   1.273       .  A
O1           Zn7   2.013   1_655  S
C2           O18   1.273       .  A
C2           O15   1.275       .  A
C2         C1128   1.477       .  S
O3           C16   1.279   1_655  A
O3          Cd10   2.110   1_655  S
O4           C22   1.271       .  A
O4          Cd13   2.046   1_565  S
O5           C19   1.276       .  A
O5           Cd9   2.077       .  S
O6           C17   1.276       .  A
O6           Cd9   2.085       .  S
Zn7          O18   2.017       .  S
Zn7          O20   1.978       .  S
Zn7          O12   1.928       .  S
O8           C19   1.274   1_455  A
O8          Cd13   2.059       .  S
Cd9          O11   2.065   1_545  S
Cd9          O12   2.004   1_655  S
Cd10         O14   2.096   1_455  S
Cd10         O23   2.095       .  S
Cd10         O12   2.022   1_565  S
O11          C21   1.273       .  A
O12         Cd13   1.993       .  S
Cd13         O15   2.082       .  S
O14          C21   1.278       .  A
C16          O20   1.270   1_565  A
C16        C1067   1.468       .  S
C17        C1083   1.476       .  S
C19        C1048   1.469       .  S
C21        C1096   1.479       .  S
C22          O23   1.278       .  A
C22        C1115   1.473       .  S
O24          C40   1.271       .  A
O24         Zn30   2.002       .  S
C25          O41   1.273       .  A
C25          O38   1.276       .  A
C25        C1035   1.475       .  S
O26          C39   1.276       .  A
O26         Cd33   2.093       .  S
O27          C45   1.275       .  A
O27         Cd36   2.073   1_565  S
O28          C42   1.276       .  A
O28         Cd32   2.077       .  S
O29          C40   1.277       .  A
O29         Cd32   2.096       .  S
Zn30         O41   2.006   1_655  S
Zn30         O43   1.985       .  S
Zn30         O35   1.926       .  S
O31          C42   1.274   1_455  A
O31         Cd36   2.066       .  S
Cd32         O34   2.054   1_545  S
Cd32         O35   2.005       .  S
Cd33         O37   2.084       .  S
Cd33         O46   2.075   1_655  S
Cd33         O35   2.017   1_565  S
O34          C44   1.272       .  A
O35         Cd36   2.001   1_655  S
Cd36         O38   2.086       .  S
O37          C44   1.277       .  A
C39          O43   1.270   1_565  A
C39        C1051   1.463       .  S
C40         C984   1.476       .  S
C42        C1064   1.469   1_655  S
C44        C1000   1.472       .  S
C45          O46   1.274       .  A
C45        C1016   1.475       .  S
O47          C63   1.272       .  A
O47         Zn53   2.004       .  S
C48          O64   1.273       .  A
C48          O61   1.276       .  A
C48         C968   1.479       .  S
O49          C62   1.275       .  A
O49         Cd56   2.086       .  S
O50          C68   1.275       .  A
O50         Cd59   2.072       .  S
O51          C65   1.277       .  A
O51         Cd55   2.078       .  S
O52          C63   1.279       .  A
O52         Cd55   2.106       .  S
Zn53         O64   2.018       .  S
Zn53         O66   1.974       .  S
Zn53         O58   1.925       .  S
O54          C65   1.275       .  A
O54         Cd59   2.062       .  S
Cd55         O57   2.084       .  S
Cd55         O58   2.013       .  S
Cd56         O60   2.066       .  S
Cd56         O69   2.082       .  S
Cd56         O58   2.011       .  S
O57          C67   1.276       .  A
O58         Cd59   1.999       .  S
Cd59         O61   2.089       .  S
O60          C67   1.274       .  A
C62          O66   1.269       .  A
C62         C904   1.459   1_554  S
C63         C952   1.475       .  S
C65         C920   1.468       .  S
C67         C939   1.473       .  S
C68          O69   1.276       .  A
C68        C1131   1.477       .  S
O70          C86   1.274       .  A
O70         Zn76   2.024       .  S
C71          O87   1.274       .  A
C71          O84   1.275       .  A
C71         C888   1.475       .  S
O72          C85   1.277       .  A
O72         Cd79   2.094       .  S
O73          C91   1.275       .  A
O73         Cd82   2.071       .  S
O74          C88   1.274       .  A
O74         Cd78   2.061       .  S
O75          C86   1.274       .  A
O75         Cd78   2.075       .  S
Zn76         O87   2.018       .  S
Zn76         O89   1.980       .  S
Zn76         O81   1.932       .  S
O77          C88   1.274       .  A
O77         Cd82   2.063       .  S
Cd78         O80   2.060       .  S
Cd78         O81   1.996       .  S
Cd79         O83   2.088       .  S
Cd79         O92   2.083       .  S
Cd79         O81   2.013       .  S
O80          C90   1.273       .  A
O81         Cd82   1.998       .  S
Cd82         O84   2.076       .  S
O83          C90   1.276       .  A
C85          O89   1.270       .  A
C85         C923   1.462       .  S
C86         C875   1.472       .  S
C88         C907   1.463       .  S
C90         C856   1.469       .  S
C91          O92   1.276       .  A
C91        C1032   1.476       .  S
O93         C109   1.272       .  A
O93         Zn99   2.009       .  S
C94         O110   1.271       .  A
C94         O107   1.276       .  A
C94        C1112   1.473       .  S
O95         C108   1.276       .  A
O95        Cd102   2.089       .  S
O96         C114   1.273       .  A
O96        Cd105   2.058       .  S
O97         C111   1.275       .  A
O97        Cd101   2.061       .  S
O98         C109   1.275       .  A
O98        Cd101   2.082       .  S
Zn99        O110   1.998       .  S
Zn99        O112   1.970       .  S
Zn99        O104   1.919       .  S
O100        C111   1.273       .  A
O100       Cd105   2.059       .  S
Cd101       O103   2.079       .  S
Cd101       O104   2.000       .  S
Cd102       O106   2.072       .  S
Cd102       O115   2.076       .  S
Cd102       O104   2.009       .  S
O103        C113   1.276       .  A
O104       Cd105   2.003       .  S
Cd105       O107   2.089       .  S
O106        C113   1.275       .  A
C108        O112   1.270       .  A
C108        C795   1.463       .  S
C109        C811   1.473       .  S
C111        C776   1.459       .  S
C113        C827   1.472       .  S
C114        O115   1.275       .  A
C114        C840   1.472       .  S
O116        C132   1.270       .  A
O116       Zn122   1.991       .  S
C117        O133   1.273       .  A
C117        O130   1.275       .  A
C117       C1019   1.476       .  S
O118        C131   1.275       .  A
O118       Cd125   2.089       .  S
O119        C137   1.274       .  A
O119       Cd128   2.073       .  S
O120        C134   1.276       .  A
O120       Cd124   2.073       .  S
O121        C132   1.277       .  A
O121       Cd124   2.094       .  S
Zn122       O133   2.017       .  S
Zn122       O135   1.961       .  S
Zn122       O127   1.920       .  S
O123        C134   1.274       .  A
O123       Cd128   2.055       .  S
Cd124       O126   2.076       .  S
Cd124       O127   2.002       .  S
Cd125       O129   2.088       .  S
Cd125       O138   2.060       .  S
Cd125       O127   2.011       .  S
O126        C136   1.276       .  A
O127       Cd128   1.997       .  S
Cd128       O130   2.078       .  S
O129        C136   1.276       .  A
C131        O135   1.268       .  A
C131        C779   1.461       .  S
C132        C731   1.470       .  S
C134        C792   1.461   1_556  S
C136        C744   1.477       .  S
C137        O138   1.274       .  A
C137        C760   1.471       .  S
O139        C155   1.273       .  A
O139       Zn145   2.017       .  S
C140        O156   1.271       .  A
C140        O153   1.276   1_556  A
C140        C763   1.473       .  S
O141        C154   1.278   1_545  A
O141       Cd148   2.094       .  S
O142        C160   1.274       .  A
O142       Cd151   2.063   1_545  S
O143        C157   1.273       .  A
O143       Cd147   2.057       .  S
O144        C155   1.274   1_554  A
O144       Cd147   2.082       .  S
Zn145       O156   1.992       .  S
Zn145       O158   1.977       .  S
Zn145       O150   1.924       .  S
O146        C157   1.274       .  A
O146       Cd151   2.057       .  S
Cd147       O149   2.065   1_565  S
Cd147       O150   1.998   1_554  S
Cd148       O152   2.093       .  S
Cd148       O161   2.098       .  S
Cd148       O150   2.018   1_545  S
O149        C159   1.274       .  A
O150       Cd151   2.003   1_556  S
Cd151       O153   2.092       .  S
O152        C159   1.277   1_556  A
C154        O158   1.270       .  A
C154        C664   1.462       .  S
C155        C699   1.475       .  S
C157        C680   1.460       .  S
C159        C712   1.479       .  S
C160        O161   1.278   1_554  A
C160        C971   1.479       .  S
O162        C178   1.272       .  A
O162       Zn168   2.010       .  S
C163        O179   1.273       .  A
C163        O176   1.274       .  A
C163        C843   1.471       .  S
O164        C177   1.276       .  A
O164       Cd171   2.086       .  S
O165        C183   1.275       .  A
O165       Cd174   2.071   1_545  S
O166        C180   1.274       .  A
O166       Cd170   2.062       .  S
O167        C178   1.277       .  A
O167       Cd170   2.096       .  S
Zn168       O179   2.010       .  S
Zn168       O181   1.976       .  S
Zn168       O173   1.927       .  S
O169        C180   1.274       .  A
O169       Cd174   2.062       .  S
Cd170       O172   2.053   1_565  S
Cd170       O173   1.998       .  S
Cd171       O175   2.091       .  S
Cd171       O184   2.081       .  S
Cd171       O173   2.018   1_545  S
O172        C182   1.273       .  A
O173       Cd174   2.000       .  S
Cd174       O176   2.072       .  S
O175        C182   1.277       .  A
C177        O181   1.270   1_545  A
C177        C683   1.458       .  S
C178        C632   1.479       .  S
C180        C667   1.461       .  S
C182        C648   1.474       .  S
C183        O184   1.275       .  A
C183        C891   1.476       .  S
O185        C201   1.272       .  A
O185       Zn191   2.012       .  S
C186        O202   1.272       .  A
C186        O199   1.277       .  A
C186        C600   1.477       .  S
O187        C200   1.278       .  A
O187       Cd194   2.096       .  S
O188        C206   1.276       .  A
O188       Cd197   2.081       .  S
O189        C203   1.275       .  A
O189       Cd193   2.058       .  S
O190        C201   1.276       .  A
O190       Cd193   2.095       .  S
Zn191       O202   2.017       .  S
Zn191       O204   1.973       .  S
Zn191       O196   1.925       .  S
O192        C203   1.277       .  A
O192       Cd197   2.077       .  S
Cd193       O195   2.061       .  S
Cd193       O196   2.000       .  S
Cd194       O198   2.096       .  S
Cd194       O207   2.091       .  S
Cd194       O196   2.019       .  S
O195        C205   1.273       .  A
O196       Cd197   2.006       .  S
Cd197       O199   2.092       .  S
O198        C205   1.278       .  A
C200        O204   1.271       .  A
C200        C584   1.464       .  S
C201       C1099   1.477       .  S
C203        C568   1.467       .  S
C205        C635   1.478       .  S
C206        O207   1.277       .  A
C206        C616   1.477       .  S
O208        C224   1.273       .  A
O208       Zn214   2.012       .  S
C209        O225   1.271       .  A
C209        O222   1.275       .  A
C209        C536   1.468       .  S
O210        C223   1.278       .  A
O210       Cd217   2.104       .  S
O211        C229   1.273       .  A
O211       Cd220   2.056       .  S
O212        C226   1.273       .  A
O212       Cd216   2.059       .  S
O213        C224   1.275       .  A
O213       Cd216   2.071       .  S
Zn214       O225   1.998       .  S
Zn214       O227   1.976       .  S
Zn214       O219   1.921       .  S
O215        C226   1.274       .  A
O215       Cd220   2.061       .  S
Cd216       O218   2.068       .  S
Cd216       O219   1.996       .  S
Cd217       O221   2.081       .  S
Cd217       O230   2.093       .  S
Cd217       O219   2.013       .  S
O218        C228   1.274       .  A
O219       Cd220   1.992       .  S
Cd220       O222   2.085       .  S
O221        C228   1.276       .  A
C223        O227   1.270       .  A
C223        C571   1.465       .  S
C224       C1003   1.470       .  S
C226        C587   1.462   1_556  S
C228        C696   1.475       .  S
C229        O230   1.277       .  A
C229        C552   1.471       .  S
O231        C247   1.273       .  A
O231       Zn237   2.019       .  S
C232        O248   1.274       .  A
C232        O245   1.276       .  A
C232        C523   1.480       .  S
O233        C246   1.277       .  A
O233       Cd240   2.096       .  S
O234        C252   1.276       .  A
O234       Cd243   2.080       .  S
O235        C249   1.275       .  A
O235       Cd239   2.068       .  S
O236        C247   1.278       .  A
O236       Cd239   2.095       .  S
Zn237       O248   2.030       .  S
Zn237       O250   1.971       .  S
Zn237       O242   1.932       .  S
O238        C249   1.274       .  A
O238       Cd243   2.064       .  S
Cd239       O241   2.063       .  S
Cd239       O242   2.003       .  S
Cd240       O244   2.088       .  S
Cd240       O253   2.084       .  S
Cd240       O242   2.019       .  S
O241        C251   1.272       .  A
O242       Cd243   2.004       .  S
Cd243       O245   2.090       .  S
O244        C251   1.276       .  A
C246        O250   1.270       .  A
C246        C472   1.462   1_554  S
C247        C715   1.480       .  S
C249        C488   1.462       .  S
C251       C1080   1.476       .  S
C252        O253   1.276       .  A
C252        C507   1.476       .  S
O254        C270   1.272       .  A
O254       Zn260   2.003       .  S
C255        O271   1.270       .  A
C255        O268   1.274       .  A
C255        C456   1.472       .  S
O256        C269   1.277       .  A
O256       Cd263   2.102       .  S
O257        C275   1.273       .  A
O257       Cd266   2.052       .  S
O258        C272   1.276       .  A
O258       Cd262   2.075       .  S
O259        C270   1.277       .  A
O259       Cd262   2.085       .  S
Zn260       O271   1.995       .  S
Zn260       O273   1.969       .  S
Zn260       O265   1.916       .  S
O261        C272   1.274       .  A
O261       Cd266   2.058       .  S
Cd262       O264   2.073       .  S
Cd262       O265   2.000       .  S
Cd263       O267   2.082       .  S
Cd263       O276   2.087       .  S
Cd263       O265   2.018       .  S
O264        C274   1.275       .  A
O265       Cd266   1.995       .  S
Cd266       O268   2.088       .  S
O267        C274   1.277       .  A
C269        O273   1.269       .  A
C269        C491   1.467       .  S
C270        C651   1.473       .  S
C272        C475   1.465       .  S
C274        C987   1.477       .  S
C275        O276   1.277       .  A
C275        C440   1.466       .  S
O277        C293   1.273       .  A
O277       Zn283   2.014       .  S
C278        O294   1.272       .  A
C278        O291   1.277   1_554  A
C278        C520   1.477       .  S
O279        C292   1.280       .  A
O279       Cd286   2.119       .  S
O280        C298   1.276       .  A
O280       Cd289   2.068       .  S
O281        C295   1.276       .  A
O281       Cd285   2.078       .  S
O282        C293   1.278   1_556  A
O282       Cd285   2.094       .  S
Zn283       O294   2.010       .  S
Zn283       O296   1.966       .  S
Zn283       O288   1.921   1_554  S
O284        C295   1.275       .  A
O284       Cd289   2.071       .  S
Cd285       O287   2.079       .  S
Cd285       O288   2.004       .  S
Cd286       O290   2.096   1_554  S
Cd286       O299   2.094   1_554  S
Cd286       O288   2.021   1_554  S
O287        C297   1.276       .  A
O288       Cd289   1.997       .  S
Cd289       O291   2.100       .  S
O290        C297   1.279       .  A
C292        O296   1.269       .  A
C292        C424   1.471       .  S
C293        C955   1.476       .  S
C295        C408   1.472       .  S
C297        C747   1.478       .  S
C298        O299   1.278       .  A
C298        C555   1.475       .  S
O300        C316   1.272       .  A
O300       Zn306   1.998       .  S
C301        O317   1.272       .  A
C301        O314   1.276       .  A
C301        C459   1.470       .  S
O302        C315   1.278       .  A
O302       Cd309   2.108       .  S
O303        C321   1.276       .  A
O303       Cd312   2.081       .  S
O304        C318   1.276       .  A
O304       Cd308   2.077       .  S
O305        C316   1.276       .  A
O305       Cd308   2.097       .  S
Zn306       O317   2.009       .  S
Zn306       O319   1.974       .  S
Zn306       O311   1.920       .  S
O307        C318   1.276       .  A
O307       Cd312   2.075       .  S
Cd308       O310   2.063       .  S
Cd308       O311   1.999       .  S
Cd309       O313   2.099       .  S
Cd309       O322   2.089       .  S
Cd309       O311   2.012       .  S
O310        C320   1.274       .  A
O311       Cd312   1.999       .  S
Cd312       O314   2.085       .  S
O313        C320   1.279       .  A
C315        O319   1.269       .  A
C315        C411   1.468       .  S
C316        C872   1.474       .  S
C318        C427   1.472       .  S
C320        C824   1.473       .  S
C321        O322   1.278       .  A
C321        C619   1.478       .  S
O323        C339   1.273       .  A
O323       Zn329   2.016       .  S
C324        O340   1.273       .  A
C324        O337   1.278       .  A
C324        C603   1.475       .  S
O325        C338   1.279       .  A
O325       Cd332   2.112       .  S
O326        C344   1.275       .  A
O326       Cd335   2.063       .  S
O327        C341   1.274       .  A
O327       Cd331   2.060       .  S
O328        C339   1.273       .  A
O328       Cd331   2.077       .  S
Zn329       O340   2.010   1_455  S
Zn329       O342   1.980       .  S
Zn329       O334   1.923       .  S
O330        C341   1.276   1_655  A
O330       Cd335   2.082       .  S
Cd331       O333   2.058       .  S
Cd331       O334   1.990       .  S
Cd332       O336   2.100       .  S
Cd332       O345   2.111   1_455  S
Cd332       O334   2.018       .  S
O333        C343   1.273       .  A
O334       Cd335   1.998   1_455  S
Cd335       O337   2.099       .  S
O336        C343   1.279       .  A
C338        O342   1.270       .  A
C338        C379   1.465       .  S
C339        C808   1.471       .  S
C341        C395   1.471       .  S
C343        C936   1.472       .  S
C344        O345   1.280       .  A
C344        C504   1.480       .  S
O346        C362   1.270       .  A
O346       Zn352   1.990   1_455  S
C347        O363   1.272       .  A
C347        O360   1.276       .  A
C347        C539   1.470       .  S
O348        C361   1.277       .  A
O348       Cd355   2.105       .  S
O349        C367   1.275       .  A
O349       Cd358   2.066       .  S
O350        C364   1.277   1_455  A
O350       Cd354   2.086       .  S
O351        C362   1.278       .  A
O351       Cd354   2.100       .  S
Zn352       O363   2.002       .  S
Zn352       O365   1.975       .  S
Zn352       O357   1.916       .  S
O353        C364   1.275       .  A
O353       Cd358   2.068       .  S
Cd354       O356   2.066       .  S
Cd354       O357   2.007   1_455  S
Cd355       O359   2.080   1_655  S
Cd355       O368   2.075       .  S
Cd355       O357   2.012       .  S
O356        C366   1.276       .  A
O357       Cd358   1.996       .  S
Cd358       O360   2.083       .  S
O359        C366   1.277       .  A
C361        O365   1.268       .  A
C361        C392   1.465       .  S
C362        C728   1.470       .  S
C364        C376   1.477       .  S
C366        C859   1.472       .  S
C367        O368   1.275       .  A
C367        C443   1.470       .  S
C369        S375   1.705       .  A
C369        C374   1.386   1_655  A
C369        C370   1.401       .  A
C370        C371   1.402       .  A
C370        H381   1.082       .  S
C371        C380   1.371       .  A
C371        C372   1.386   1_655  A
C372        S378   1.710       .  A
C372        C373   1.405       .  A
C373        C374   1.405       .  A
C373        H382   1.082       .  S
C374        C377   1.375       .  A
S375        C376   1.725       .  A
C376        C377   1.390   1_655  A
C377        H383   1.082       .  S
S378        C379   1.724       .  A
C379        C380   1.385   1_455  A
C380        H384   1.083       .  S
C385        S391   1.716       .  A
C385        C390   1.386   1_655  A
C385        C386   1.407   1_556  A
C386        C387   1.408       .  A
C386        H397   1.082       .  S
C387        C396   1.375       .  A
C387        C388   1.387   1_655  A
C388        S394   1.702       .  A
C388        C389   1.396       .  A
C389        C390   1.398   1_554  A
C389        H398   1.083   1_554  S
C390        C393   1.364       .  A
S391        C392   1.724       .  A
C392        C393   1.383   1_655  A
C393        H399   1.083       .  S
S394        C395   1.720       .  A
C395        C396   1.390   1_455  A
C396        H400   1.083       .  S
C401        S407   1.709       .  A
C401        C406   1.387       .  A
C401        C402   1.400       .  A
C402        C403   1.402       .  A
C402        H413   1.082       .  S
C403        C412   1.366       .  A
C403        C404   1.386       .  A
C404        S410   1.714       .  A
C404        C405   1.403       .  A
C405        C406   1.405       .  A
C405        H414   1.082       .  S
C406        C409   1.370       .  A
S407        C408   1.722       .  A
C408        C409   1.388       .  A
C409        H415   1.082       .  S
S410        C411   1.722       .  A
C411        C412   1.386       .  A
C412        H416   1.083       .  S
C417        S423   1.718       .  A
C417        C422   1.386       .  A
C417        C418   1.406       .  A
C418        C419   1.408       .  A
C418        H429   1.082       .  S
C419        C428   1.373       .  A
C419        C420   1.387       .  A
C420        S426   1.706       .  A
C420        C421   1.397       .  A
C421        C422   1.400       .  A
C421        H430   1.082       .  S
C422        C425   1.363       .  A
S423        C424   1.724       .  A
C424        C425   1.386       .  A
C425        H431   1.083       .  S
S426        C427   1.720       .  A
C427        C428   1.390       .  A
C428        H432   1.082       .  S
C433        S439   1.703       .  A
C433        C438   1.387       .  A
C433        C434   1.399       .  A
C434        C435   1.399       .  A
C434        H445   1.083       .  S
C435        C444   1.368       .  A
C435        C436   1.387       .  A
C436        S442   1.709       .  A
C436        C437   1.403       .  A
C437        C438   1.404       .  A
C437        H446   1.082       .  S
C438        C441   1.372       .  A
S439        C440   1.721       .  A
C440        C441   1.386       .  A
C441        H447   1.083       .  S
S442        C443   1.724       .  A
C443        C444   1.385       .  A
C444        H448   1.083       .  S
C449        S455   1.714       .  A
C449        C454   1.386       .  A
C449        C450   1.403       .  A
C450        C451   1.406       .  A
C450        H461   1.081       .  S
C451        C460   1.370       .  A
C451        C452   1.387       .  A
C452        S458   1.709       .  A
C452        C453   1.399       .  A
C453        C454   1.402       .  A
C453        H462   1.081       .  S
C454        C457   1.366       .  A
S455        C456   1.723       .  A
C456        C457   1.386       .  A
C457        H463   1.082       .  S
S458        C459   1.720       .  A
C459        C460   1.388       .  A
C460        H464   1.082       .  S
C465        S471   1.714       .  A
C465        C470   1.387       .  A
C465        C466   1.402       .  A
C466        C467   1.405       .  A
C466        H477   1.083       .  S
C467        C476   1.367       .  A
C467        C468   1.387       .  A
C468        S474   1.706       .  A
C468        C469   1.396       .  A
C469        C470   1.399       .  A
C469        H478   1.083       .  S
C470        C473   1.361       .  A
S471        C472   1.721       .  A
C472        C473   1.383       .  A
C473        H479   1.084       .  S
S474        C475   1.719       .  A
C475        C476   1.387       .  A
C476        H480   1.083       .  S
C481        S487   1.706       .  A
C481        C486   1.387       .  A
C481        C482   1.396       .  A
C482        C483   1.399       .  A
C482        H493   1.083       .  S
C483        C492   1.362       .  A
C483        C484   1.386       .  A
C484        S490   1.715       .  A
C484        C485   1.403       .  A
C485        C486   1.406       .  A
C485        H494   1.083       .  S
C486        C489   1.369       .  A
S487        C488   1.718       .  A
C488        C489   1.387       .  A
C489        H495   1.083       .  S
S490        C491   1.722       .  A
C491        C492   1.385       .  A
C492        H496   1.084       .  S
C497        S503   1.703       .  A
C497        C502   1.387       .  A
C497        C498   1.401       .  A
C498        C499   1.401       .  A
C498        H509   1.082       .  S
C499        C508   1.372       .  A
C499        C500   1.387       .  A
C500        S506   1.712       .  A
C500        C501   1.408       .  A
C501        C502   1.408       .  A
C501        H510   1.082       .  S
C502        C505   1.379       .  A
S503        C504   1.724       .  A
C504        C505   1.391       .  A
C505        H511   1.082       .  S
S506        C507   1.726       .  A
C507        C508   1.386       .  A
C508        H512   1.082       .  S
C513        S519   1.715   1_554  A
C513        C518   1.386       .  A
C513        C514   1.405       .  A
C514        C515   1.407       .  A
C514        H525   1.081   1_554  S
C515        C524   1.375       .  A
C515        C516   1.386       .  A
C516        S522   1.712       .  A
C516        C517   1.404       .  A
C517        C518   1.405       .  A
C517        H526   1.081       .  S
C518        C521   1.372       .  A
S519        C520   1.723   1_556  A
C520        C521   1.389       .  A
C521        H527   1.082       .  S
S522        C523   1.724       .  A
C523        C524   1.390       .  A
C524        H528   1.082       .  S
C529        S535   1.712       .  A
C529        C534   1.387       .  A
C529        C530   1.401       .  A
C530        C531   1.404       .  A
C530        H541   1.082       .  S
C531        C540   1.368       .  A
C531        C532   1.387       .  A
C532        S538   1.710       .  A
C532        C533   1.400       .  A
C533        C534   1.403       .  A
C533        H542   1.082       .  S
C534        C537   1.367       .  A
S535        C536   1.721       .  A
C536        C537   1.386       .  A
C537        H543   1.083       .  S
S538        C539   1.721       .  A
C539        C540   1.387       .  A
C540        H544   1.083       .  S
C545        S551   1.705       .  A
C545        C550   1.387       .  A
C545        C546   1.400       .  A
C546        C547   1.401       .  A
C546        H557   1.083       .  S
C547        C556   1.369       .  A
C547        C548   1.386       .  A
C548        S554   1.712       .  A
C548        C549   1.405       .  A
C549        C550   1.406       .  A
C549        H558   1.083       .  S
C550        C553   1.375       .  A
S551        C552   1.722       .  A
C552        C553   1.388       .  A
C553        H559   1.083       .  S
S554        C555   1.725       .  A
C555        C556   1.386       .  A
C556        H560   1.083       .  S
C561        S567   1.708       .  A
C561        C566   1.387       .  A
C561        C562   1.398       .  A
C562        C563   1.401       .  A
C562        H573   1.083       .  S
C563        C572   1.364       .  A
C563        C564   1.387       .  A
C564        S570   1.714       .  A
C564        C565   1.402       .  A
C565        C566   1.404       .  A
C565        H574   1.083       .  S
C566        C569   1.367       .  A
S567        C568   1.721       .  A
C568        C569   1.387       .  A
C569        H575   1.083       .  S
S570        C571   1.721       .  A
C571        C572   1.385       .  A
C572        H576   1.083       .  S
C577        S583   1.711       .  A
C577        C582   1.387       .  A
C577        C578   1.401       .  A
C578        C579   1.403       .  A
C578        H589   1.083       .  S
C579        C588   1.367       .  A
C579        C580   1.387       .  A
C580        S586   1.704       .  A
C580        C581   1.396       .  A
C581        C582   1.399       .  A
C581        H590   1.083       .  S
C582        C585   1.362       .  A
S583        C584   1.721       .  A
C584        C585   1.385       .  A
C585        H591   1.083       .  S
S586        C587   1.719       .  A
C587        C588   1.386       .  A
C588        H592   1.083       .  S
C593        S599   1.709       .  A
C593        C598   1.387       .  A
C593        C594   1.406       .  A
C594        C595   1.405       .  A
C594        H605   1.082       .  S
C595        C604   1.377       .  A
C595        C596   1.387       .  A
C596        S602   1.705       .  A
C596        C597   1.402       .  A
C597        C598   1.402       .  A
C597        H606   1.082       .  S
C598        C601   1.374       .  A
S599        C600   1.727       .  A
C600        C601   1.386       .  A
C601        H607   1.082       .  S
S602        C603   1.724       .  A
C603        C604   1.388       .  A
C604        H608   1.082       .  S
C609        S615   1.711       .  A
C609        C614   1.387       .  A
C609        C610   1.405       .  A
C610        C611   1.405       .  A
C610        H621   1.082       .  S
C611        C620   1.375       .  A
C611        C612   1.386       .  A
C612        S618   1.710       .  A
C612        C613   1.404       .  A
C613        C614   1.404       .  A
C613        H622   1.082       .  S
C614        C617   1.374       .  A
S615        C616   1.724       .  A
C616        C617   1.388       .  A
C617        H623   1.083       .  S
S618        C619   1.724       .  A
C619        C620   1.390       .  A
C620        H624   1.082       .  S
C625        S631   1.707       .  A
C625        C630   1.387       .  A
C625        C626   1.405       .  A
C626        C627   1.404       .  A
C626        H637   1.082       .  S
C627        C636   1.376       .  A
C627        C628   1.387       .  A
C628        S634   1.705       .  A
C628        C629   1.403       .  A
C629        C630   1.403       .  A
C629        H638   1.082       .  S
C630        C633   1.375       .  A
S631        C632   1.727       .  A
C632        C633   1.388       .  A
C633        H639   1.083       .  S
S634        C635   1.725       .  A
C635        C636   1.389       .  A
C636        H640   1.083       .  S
C641        S647   1.702       .  A
C641        C646   1.387       .  A
C641        C642   1.401       .  A
C642        C643   1.401       .  A
C642        H653   1.082       .  S
C643        C652   1.372       .  A
C643        C644   1.387       .  A
C644        S650   1.705       .  A
C644        C645   1.403       .  A
C645        C646   1.403       .  A
C645        H654   1.082       .  S
C646        C649   1.374       .  A
S647        C648   1.725       .  A
C648        C649   1.388       .  A
C649        H655   1.082       .  S
S650        C651   1.725       .  A
C651        C652   1.386       .  A
C652        H656   1.083       .  S
C657        S663   1.711       .  A
C657        C662   1.387   1_545  A
C657        C658   1.400       .  A
C658        C659   1.403   1_545  A
C658        H669   1.082       .  S
C659        C668   1.366       .  A
C659        C660   1.387       .  A
C660        S666   1.706       .  A
C660        C661   1.397       .  A
C661        C662   1.400       .  A
C661        H670   1.083       .  S
C662        C665   1.363       .  A
S663        C664   1.720   1_545  A
C664        C665   1.384       .  A
C665        H671   1.083       .  S
S666        C667   1.719       .  A
C667        C668   1.385       .  A
C668        H672   1.083   1_565  S
C673        S679   1.704       .  A
C673        C678   1.387       .  A
C673        C674   1.396       .  A
C674        C675   1.399       .  A
C674        H685   1.083       .  S
C675        C684   1.362       .  A
C675        C676   1.387   1_565  A
C676        S682   1.710       .  A
C676        C677   1.400       .  A
C677        C678   1.402   1_545  A
C677        H686   1.082       .  S
C678        C681   1.365       .  A
S679        C680   1.719       .  A
C680        C681   1.385       .  A
C681        H687   1.083   1_565  S
S682        C683   1.720       .  A
C683        C684   1.382   1_545  A
C684        H688   1.083       .  S
C689        S695   1.709       .  A
C689        C694   1.387       .  A
C689        C690   1.404       .  A
C690        C691   1.404       .  A
C690        H701   1.082       .  S
C691        C700   1.374       .  A
C691        C692   1.387       .  A
C692        S698   1.705       .  A
C692        C693   1.401       .  A
C693        C694   1.402       .  A
C693        H702   1.082       .  S
C694        C697   1.371       .  A
S695        C696   1.726       .  A
C696        C697   1.387       .  A
C697        H703   1.083       .  S
S698        C699   1.724       .  A
C699        C700   1.388       .  A
C700        H704   1.082       .  S
C705        S711   1.705       .  A
C705        C710   1.387       .  A
C705        C706   1.403       .  A
C706        C707   1.403       .  A
C706        H717   1.082       .  S
C707        C716   1.374       .  A
C707        C708   1.386       .  A
C708        S714   1.709       .  A
C708        C709   1.406       .  A
C709        C710   1.405       .  A
C709        H718   1.082       .  S
C710        C713   1.377       .  A
S711        C712   1.725       .  A
C712        C713   1.390       .  A
C713        H719   1.082   1_554  S
S714        C715   1.727       .  A
C715        C716   1.388       .  A
C716        H720   1.083       .  S
C721        S727   1.701       .  A
C721        C726   1.388       .  A
C721        C722   1.402       .  A
C722        C723   1.401       .  A
C722        H733   1.083       .  S
C723        C732   1.374       .  A
C723        C724   1.388       .  A
C724        S730   1.703       .  A
C724        C725   1.403       .  A
C725        C726   1.402       .  A
C725        H734   1.082       .  S
C726        C729   1.376       .  A
S727        C728   1.723       .  A
C728        C729   1.386       .  A
C729        H735   1.083       .  S
S730        C731   1.724       .  A
C731        C732   1.385       .  A
C732        H736   1.083       .  S
C737        S743   1.712       .  A
C737        C742   1.386       .  A
C737        C738   1.406       .  A
C738        C739   1.407       .  A
C738        H749   1.082       .  S
C739        C748   1.376       .  A
C739        C740   1.387       .  A
C740        S746   1.708       .  A
C740        C741   1.402       .  A
C741        C742   1.403       .  A
C741        H750   1.082       .  S
C742        C745   1.372       .  A
S743        C744   1.725       .  A
C744        C745   1.388       .  A
C745        H751   1.083       .  S
S746        C747   1.724       .  A
C747        C748   1.390       .  A
C748        H752   1.082       .  S
C753        S759   1.711       .  A
C753        C758   1.386       .  A
C753        C754   1.405       .  A
C754        C755   1.406       .  A
C754        H765   1.082   1_556  S
C755        C764   1.375       .  A
C755        C756   1.387       .  A
C756        S762   1.699       .  A
C756        C757   1.397       .  A
C757        C758   1.397       .  A
C757        H766   1.082       .  S
C758        C761   1.365       .  A
S759        C760   1.726       .  A
C760        C761   1.384       .  A
C761        H767   1.083       .  S
S762        C763   1.723       .  A
C763        C764   1.389       .  A
C764        H768   1.082   1_556  S
C769        S775   1.701       .  A
C769        C774   1.388       .  A
C769        C770   1.392       .  A
C770        C771   1.395       .  A
C770        H781   1.083       .  S
C771        C780   1.356       .  A
C771        C772   1.387       .  A
C772        S778   1.716       .  A
C772        C773   1.404       .  A
C773        C774   1.407       .  A
C773        H782   1.083       .  S
C774        C777   1.369       .  A
S775        C776   1.715       .  A
C776        C777   1.387       .  A
C777        H783   1.083       .  S
S778        C779   1.723       .  A
C779        C780   1.380       .  A
C780        H784   1.084       .  S
C785        S791   1.703       .  A
C785        C790   1.387       .  A
C785        C786   1.395       .  A
C786        C787   1.398       .  A
C786        H797   1.083       .  S
C787        C796   1.360       .  A
C787        C788   1.387       .  A
C788        S794   1.713       .  A
C788        C789   1.402       .  A
C789        C790   1.404       .  A
C789        H798   1.083       .  S
C790        C793   1.368       .  A
S791        C792   1.719       .  A
C792        C793   1.386       .  A
C793        H799   1.083       .  S
S794        C795   1.721       .  A
C795        C796   1.383       .  A
C796        H800   1.084       .  S
C801        S807   1.711       .  A
C801        C806   1.387       .  A
C801        C802   1.402       .  A
C802        C803   1.404       .  A
C802        H813   1.083       .  S
C803        C812   1.370       .  A
C803        C804   1.387       .  A
C804        S810   1.710       .  A
C804        C805   1.401       .  A
C805        C806   1.403       .  A
C805        H814   1.083       .  S
C806        C809   1.369       .  A
S807        C808   1.723       .  A
C808        C809   1.386       .  A
C809        H815   1.083       .  S
S810        C811   1.722       .  A
C811        C812   1.388       .  A
C812        H816   1.083       .  S
C817        S823   1.706       .  A
C817        C822   1.387       .  A
C817        C818   1.403       .  A
C818        C819   1.403       .  A
C818        H829   1.082       .  S
C819        C828   1.373       .  A
C819        C820   1.387       .  A
C820        S826   1.707       .  A
C820        C821   1.403       .  A
C821        C822   1.403       .  A
C821        H830   1.082       .  S
C822        C825   1.374       .  A
S823        C824   1.724       .  A
C824        C825   1.387       .  A
C825        H831   1.083       .  S
S826        C827   1.723       .  A
C827        C828   1.387       .  A
C828        H832   1.083       .  S
C833        S839   1.707       .  A
C833        C838   1.387       .  A
C833        C834   1.400       .  A
C834        C835   1.402       .  A
C834        H845   1.081       .  S
C835        C844   1.368       .  A
C835        C836   1.387       .  A
C836        S842   1.708       .  A
C836        C837   1.401       .  A
C837        C838   1.403       .  A
C837        H846   1.081       .  S
C838        C841   1.369       .  A
S839        C840   1.722       .  A
C840        C841   1.388       .  A
C841        H847   1.082       .  S
S842        C843   1.724       .  A
C843        C844   1.386       .  A
C844        H848   1.082       .  S
C849        S855   1.706       .  A
C849        C854   1.387       .  A
C849        C850   1.400       .  A
C850        C851   1.401       .  A
C850        H861   1.082       .  S
C851        C860   1.369       .  A
C851        C852   1.387       .  A
C852        S858   1.709       .  A
C852        C853   1.403       .  A
C853        C854   1.404       .  A
C853        H862   1.082       .  S
C854        C857   1.372       .  A
S855        C856   1.722       .  A
C856        C857   1.387       .  A
C857        H863   1.083       .  S
S858        C859   1.724       .  A
C859        C860   1.387       .  A
C860        H864   1.083       .  S
C865        S871   1.716       .  A
C865        C870   1.386       .  A
C865        C866   1.405       .  A
C866        C867   1.407       .  A
C866        H877   1.081       .  S
C867        C876   1.373       .  A
C867        C868   1.387       .  A
C868        S874   1.707       .  A
C868        C869   1.399       .  A
C869        C870   1.401       .  A
C869        H878   1.082       .  S
C870        C873   1.366       .  A
S871        C872   1.724       .  A
C872        C873   1.386       .  A
C873        H879   1.082       .  S
S874        C875   1.721       .  A
C875        C876   1.389       .  A
C876        H880   1.082       .  S
C881        S887   1.708       .  A
C881        C886   1.387       .  A
C881        C882   1.401       .  A
C882        C883   1.403       .  A
C882        H893   1.082       .  S
C883        C892   1.370       .  A
C883        C884   1.386       .  A
C884        S890   1.710       .  A
C884        C885   1.403       .  A
C885        C886   1.404       .  A
C885        H894   1.082       .  S
C886        C889   1.371       .  A
S887        C888   1.723       .  A
C888        C889   1.389       .  A
C889        H895   1.083       .  S
S890        C891   1.725       .  A
C891        C892   1.388       .  A
C892        H896   1.083       .  S
C897        S903   1.712       .  A
C897        C902   1.387       .  A
C897        C898   1.402       .  A
C898        C899   1.404       .  A
C898        H909   1.083       .  S
C899        C908   1.368       .  A
C899        C900   1.387       .  A
C900        S906   1.704       .  A
C900        C901   1.396       .  A
C901        C902   1.398       .  A
C901        H910   1.083       .  S
C902        C905   1.361       .  A
S903        C904   1.721       .  A
C904        C905   1.382       .  A
C905        H911   1.084       .  S
S906        C907   1.719       .  A
C907        C908   1.386       .  A
C908        H912   1.083       .  S
C913        S919   1.705       .  A
C913        C918   1.387       .  A
C913        C914   1.398       .  A
C914        C915   1.400       .  A
C914        H925   1.083       .  S
C915        C924   1.365       .  A
C915        C916   1.387       .  A
C916        S922   1.712       .  A
C916        C917   1.403       .  A
C917        C918   1.404       .  A
C917        H926   1.083       .  S
C918        C921   1.370       .  A
S919        C920   1.721       .  A
C920        C921   1.388       .  A
C921        H927   1.083       .  S
S922        C923   1.720       .  A
C923        C924   1.384       .  A
C924        H928   1.083       .  S
C929        S935   1.706       .  A
C929        C934   1.387       .  A
C929        C930   1.403       .  A
C930        C931   1.403       .  A
C930        H941   1.082       .  S
C931        C940   1.373       .  A
C931        C932   1.387       .  A
C932        S938   1.705       .  A
C932        C933   1.402       .  A
C933        C934   1.402       .  A
C933        H942   1.082       .  S
C934        C937   1.373       .  A
S935        C936   1.725       .  A
C936        C937   1.386       .  A
C937        H943   1.083       .  S
S938        C939   1.724       .  A
C939        C940   1.387       .  A
C940        H944   1.082       .  S
C945        S951   1.703       .  A
C945        C950   1.387       .  A
C945        C946   1.403       .  A
C946        C947   1.402       .  A
C946        H957   1.082   1_554  S
C947        C956   1.375       .  A
C947        C948   1.387       .  A
C948        S954   1.708       .  A
C948        C949   1.406       .  A
C949        C950   1.405       .  A
C949        H958   1.082       .  S
C950        C953   1.378       .  A
S951        C952   1.724       .  A
C952        C953   1.388       .  A
C953        H959   1.082       .  S
S954        C955   1.726       .  A
C955        C956   1.387       .  A
C956        H960   1.082   1_554  S
C961        S967   1.710       .  A
C961        C966   1.386       .  A
C961        C962   1.402       .  A
C962        C963   1.404       .  A
C962        H973   1.083       .  S
C963        C972   1.371       .  A
C963        C964   1.386       .  A
C964        S970   1.713   1_554  A
C964        C965   1.404       .  A
C965        C966   1.406       .  A
C965        H974   1.082       .  S
C966        C969   1.373       .  A
S967        C968   1.724       .  A
C968        C969   1.391       .  A
C969        H975   1.083       .  S
S970        C971   1.725   1_556  A
C971        C972   1.390       .  A
C972        H976   1.083       .  S
C977        S983   1.705       .  A
C977        C982   1.387       .  A
C977        C978   1.403       .  A
C978        C979   1.403       .  A
C978        H989   1.082       .  S
C979        C988   1.373       .  A
C979        C980   1.386       .  A
C980        S986   1.707       .  A
C980        C981   1.404       .  A
C981        C982   1.404       .  A
C981        H990   1.082       .  S
C982        C985   1.375       .  A
S983        C984   1.726       .  A
C984        C985   1.388       .  A
C985        H991   1.082       .  S
S986        C987   1.725       .  A
C987        C988   1.388       .  A
C988        H992   1.082       .  S
C993        S999   1.704       .  A
C993        C998   1.387       .  A
C993        C994   1.401       .  A
C994        C995   1.401       .  A
C994       H1005   1.082       .  S
C995       C1004   1.370       .  A
C995        C996   1.387       .  A
C996       S1002   1.705       .  A
C996        C997   1.401       .  A
C997        C998   1.402       .  A
C997       H1006   1.082       .  S
C998       C1001   1.371       .  A
S999       C1000   1.725       .  A
C1000      C1001   1.386       .  A
C1001      H1007   1.082       .  S
S1002      C1003   1.723       .  A
C1003      C1004   1.386       .  A
C1004      H1008   1.082       .  S
C1009      S1015   1.711       .  A
C1009      C1014   1.386       .  A
C1009      C1010   1.404       .  A
C1010      C1011   1.405       .  A
C1010      H1021   1.082       .  S
C1011      C1020   1.372       .  A
C1011      C1012   1.386       .  A
C1012      S1018   1.707       .  A
C1012      C1013   1.401       .  A
C1013      C1014   1.402       .  A
C1013      H1022   1.082       .  S
C1014      C1017   1.369       .  A
S1015      C1016   1.725       .  A
C1016      C1017   1.387       .  A
C1017      H1023   1.082       .  S
S1018      C1019   1.723       .  A
C1019      C1020   1.390       .  A
C1020      H1024   1.082       .  S
C1025      S1031   1.709       .  A
C1025      C1030   1.386       .  A
C1025      C1026   1.401       .  A
C1026      C1027   1.403       .  A
C1026      H1037   1.082       .  S
C1027      C1036   1.369       .  A
C1027      C1028   1.386       .  A
C1028      S1034   1.711       .  A
C1028      C1029   1.403       .  A
C1029      C1030   1.405       .  A
C1029      H1038   1.082       .  S
C1030      C1033   1.371       .  A
S1031      C1032   1.724       .  A
C1032      C1033   1.389       .  A
C1033      H1039   1.082       .  S
S1034      C1035   1.724       .  A
C1035      C1036   1.388       .  A
C1036      H1040   1.082       .  S
C1041      S1047   1.708       .  A
C1041      C1046   1.387   1_655  A
C1041      C1042   1.399       .  A
C1042      C1043   1.401       .  A
C1042      H1053   1.083       .  S
C1043      C1052   1.365       .  A
C1043      C1044   1.387   1_645  A
C1044      S1050   1.712       .  A
C1044      C1045   1.402       .  A
C1045      C1046   1.405   1_565  A
C1045      H1054   1.082       .  S
C1046      C1049   1.368       .  A
S1047      C1048   1.721       .  A
C1048      C1049   1.388   1_655  A
C1049      H1055   1.083       .  S
S1050      C1051   1.721   1_455  A
C1051      C1052   1.384   1_565  A
C1052      H1056   1.083       .  S
C1057      S1063   1.707       .  A
C1057      C1062   1.387   1_455  A
C1057      C1058   1.399   1_556  A
C1058      C1059   1.401       .  A
C1058      H1069   1.082       .  S
C1059      C1068   1.365       .  A
C1059      C1060   1.386   1_445  A
C1060      S1066   1.715       .  A
C1060      C1061   1.404   1_554  A
C1061      C1062   1.406   1_565  A
C1061      H1070   1.082       .  S
C1062      C1065   1.372       .  A
S1063      C1064   1.721       .  A
C1064      C1065   1.388   1_455  A
C1065      H1071   1.083   1_545  S
S1066      C1067   1.722   1_655  A
C1067      C1068   1.386   1_565  A
C1068      H1072   1.083       .  S
C1073      S1079   1.707       .  A
C1073      C1078   1.387       .  A
C1073      C1074   1.404       .  A
C1074      C1075   1.404       .  A
C1074      H1085   1.082       .  S
C1075      C1084   1.374       .  A
C1075      C1076   1.387       .  A
C1076      S1082   1.705       .  A
C1076      C1077   1.402       .  A
C1077      C1078   1.402       .  A
C1077      H1086   1.082       .  S
C1078      C1081   1.373       .  A
S1079      C1080   1.726       .  A
C1080      C1081   1.387       .  A
C1081      H1087   1.082       .  S
S1082      C1083   1.724       .  A
C1083      C1084   1.388       .  A
C1084      H1088   1.082       .  S
C1089      S1095   1.708       .  A
C1089      C1094   1.386       .  A
C1089      C1090   1.405       .  A
C1090      C1091   1.405       .  A
C1090      H1101   1.082       .  S
C1091      C1100   1.377       .  A
C1091      C1092   1.387       .  A
C1092      S1098   1.705       .  A
C1092      C1093   1.403       .  A
C1093      C1094   1.402       .  A
C1093      H1102   1.082       .  S
C1094      C1097   1.375       .  A
S1095      C1096   1.727       .  A
C1096      C1097   1.388       .  A
C1097      H1103   1.082       .  S
S1098      C1099   1.724       .  A
C1099      C1100   1.389       .  A
C1100      H1104   1.082       .  S
C1105      S1111   1.703       .  A
C1105      C1110   1.387       .  A
C1105      C1106   1.402       .  A
C1106      C1107   1.401       .  A
C1106      H1117   1.082       .  S
C1107      C1116   1.373       .  A
C1107      C1108   1.387       .  A
C1108      S1114   1.703       .  A
C1108      C1109   1.402       .  A
C1109      C1110   1.402       .  A
C1109      H1118   1.082       .  S
C1110      C1113   1.373       .  A
S1111      C1112   1.725       .  A
C1112      C1113   1.387       .  A
C1113      H1119   1.082       .  S
S1114      C1115   1.726       .  A
C1115      C1116   1.386       .  A
C1116      H1120   1.083       .  S
C1121      S1127   1.709       .  A
C1121      C1126   1.386       .  A
C1121      C1122   1.402       .  A
C1122      C1123   1.404       .  A
C1122      H1133   1.082       .  S
C1123      C1132   1.371       .  A
C1123      C1124   1.386       .  A
C1124      S1130   1.710       .  A
C1124      C1125   1.403       .  A
C1125      C1126   1.405       .  A
C1125      H1134   1.082       .  S
C1126      C1129   1.372       .  A
S1127      C1128   1.724       .  A
C1128      C1129   1.389       .  A
C1129      H1135   1.082       .  S
S1130      C1131   1.725       .  A
C1131      C1132   1.389       .  A
C1132      H1136   1.082       .  S
