geometry optimzed in LAMMPS
_audit_creation_date              2020-12-01 
_audit_creation_method            'lammps2cif' 
_symmetry_space_group_name_H-M    'P1' 
_symmetry_Int_Tables_number       1 
_symmetry_cell_setting            triclinic 
loop_ 
_symmetry_equiv_pos_as_xyz 
  x,y,z 
_cell_length_a                    41.4007644 
_cell_length_b                    41.514768660655854 
_cell_length_c                    31.15088774003483 
_cell_angle_alpha                 90.07595286509518 
_cell_angle_beta                  89.94435258685179 
_cell_angle_gamma                 90.01809632064767 
loop_ 
_atom_site_label 
_atom_site_type_symbol 
_atom_site_fract_x 
_atom_site_fract_y 
_atom_site_fract_z 
_atom_site_charge 
Zr1        Zr  0.99991368  0.04582198  0.18261405     2.17500
O2          O  0.99334853  0.09785698  0.14744163    -0.52200
O3          O  0.99993932  0.02975350  0.10669895    -0.75400
O4          O  0.05214614  0.07412869  0.17680046    -0.82200
O5          O  0.91204368  0.05256900  0.22420924    -0.83900
O6          O  0.09122949  0.04183846  0.20404483    -0.79500
O7          O  0.95000997  0.07751086  0.18303200    -0.91200
O8          O  0.00050964  0.97518876  0.10226006    -0.77100
O9          O  0.03167163  0.99829006  0.17449658    -0.86600
O10         O  0.96263217  0.00188732  0.17949731    -0.86300
O11         O  0.03316825  0.04435417  0.24625650    -0.73100
O12         O  0.97028369  0.04612501  0.24899961    -0.85200
Zr13       Zr  0.00070888  0.95230292  0.30272649     2.26400
Zr14       Zr  0.06468277  0.99636397  0.23755896     2.06300
Zr15       Zr  0.93420535  0.00134063  0.24659122     2.10000
Zr16       Zr  0.99444808  0.95442834  0.17360467     1.78800
O17         O  0.89451618  0.01785228  0.30003222    -0.94000
O18         O  0.03623801  0.92042121  0.14223576    -0.41800
O19         O  0.96661468  0.95418676  0.24043649    -0.78400
O20         O  0.02869218  0.95109320  0.23477486    -0.97100
O21         O  0.03673875  0.99691082  0.30508525    -0.90400
O22         O  0.96723129  0.99898379  0.30963303    -0.93300
C23         C  0.00113933  0.00319676  0.08540535     1.00500
C24         C  0.92201117  0.07598929  0.20087747     1.13400
C25         C  0.08181538  0.06821146  0.18661260     1.04200
O26         O  0.10279032  0.97616247  0.18435513    -0.95400
O27         O  0.09061193  0.94891306  0.26571965    -0.91200
O28         O  0.05254192  0.92244767  0.30486450    -0.84300
C29         C  0.08117267  0.92515431  0.28871334     1.10800
O30         O  0.01188420  0.10158401  0.30531545    -0.97400
Zr31       Zr  0.00346157  0.04358635  0.31140198     1.88900
O32         O  0.00038726  0.96904993  0.37861562    -0.74100
O33         O  0.10676075  0.01264491  0.28771891    -0.53300
O34         O  0.05213414  0.06095271  0.34887567    -0.98000
O35         O  0.95884849  0.07446497  0.34154804    -0.55200
O36         O  0.99970357  0.02357480  0.38323336    -0.74600
C37         C  0.99916988  0.99557734  0.40006630     0.97800
O38         O  0.99671850  0.90197217  0.34279733    -0.63400
O39         O  0.89188755  0.98597834  0.19610065    -0.58200
O40         O  0.95005108  0.92177592  0.30242589    -0.94900
O41         O  0.90988406  0.95206438  0.27306624    -0.93300
O42         O  0.94364377  0.93889939  0.14009485    -0.93700
O43         O  0.98452728  0.89664294  0.17574469    -0.92400
C44         C  0.92056763  0.92630389  0.29081366     1.16600
H45         H  0.94811171  0.00423286  0.15542428     0.32600
H46         H  0.03971730  0.93098085  0.23013653     0.43400
H47         H  0.95369207  0.99793241  0.33483970     0.36900
H48         H  0.04641193  0.06316773  0.25044636     0.33400
H49         H  0.02837920  0.91530604  0.11299258     0.25200
H50         H  0.12725842  0.00721068  0.27298686     0.31100
H51         H  0.06413077  0.04091608  0.35532796     0.37000
H52         H  0.94947170  0.93305637  0.11025241     0.31500
H53         H  0.87148952  0.98833288  0.21241495     0.30400
H54         H  0.87344683  0.01102822  0.28806178     0.32100
H55         H  0.96618210  0.08098582  0.37051679     0.31000
H56         H  0.98436548  0.89129337  0.20671260     0.35000
H57         H  0.00414674  0.88492670  0.32283643     0.27800
H58         H  0.00547787  0.09605268  0.12015328     0.32000
H59         H  0.01304745  0.10983033  0.33511600     0.34800
H60         H  0.89117190  0.00351585  0.17462977     0.27500
H61         H  0.01361659  0.90317004  0.36523105     0.40300
H62         H  0.09592245  0.98591225  0.15684899     0.30400
H63         H  0.05475785  0.93509483  0.13762672     0.38000
H64         H  0.94157565  0.05845785  0.34675148     0.29900
H65         H  0.10610011  0.03648007  0.28780936     0.29900
H66         H  0.00556932  0.11357300  0.16500861     0.30200
Zr67       Zr  0.00090856  0.04339825  0.68032997     2.17500
O68         O  0.99712826  0.09392160  0.64059442    -0.52200
O69         O  0.00156032  0.02444060  0.60558390    -0.75400
O70         O  0.05294087  0.07194371  0.67409130    -0.82200
O71         O  0.91033313  0.04530990  0.71075322    -0.83900
O72         O  0.09207033  0.04255636  0.70688710    -0.79500
O73         O  0.94971647  0.07351695  0.67654298    -0.91200
O74         O  0.00232824  0.96983529  0.60372278    -0.77100
O75         O  0.03516105  0.99712717  0.67804345    -0.86600
O76         O  0.96572678  0.99782523  0.67782815    -0.86300
O77         O  0.03209315  0.04539083  0.74582900    -0.73100
O78         O  0.96880827  0.04512949  0.74464357    -0.85200
Zr79       Zr  0.00072968  0.95392782  0.80575619     2.26400
Zr80       Zr  0.06579313  0.99834801  0.74354787     2.06300
Zr81       Zr  0.93499459  0.99858390  0.74310085     2.10000
Zr82       Zr  0.99979733  0.95175849  0.67668027     1.78800
O83         O  0.89588323  0.01819866  0.79541914    -0.94000
O84         O  0.04590067  0.92359846  0.64585479    -0.41800
O85         O  0.96900330  0.95238981  0.74128173    -0.78400
O86         O  0.03144890  0.95195449  0.74006517    -0.97100
O87         O  0.03500783  0.00001461  0.80867844    -0.90400
O88         O  0.96571850  0.99962384  0.80807182    -0.93300
C89         C  0.00255247  0.99734073  0.58548299     1.00500
C90         C  0.92020613  0.06947128  0.68876550     1.13400
C91         C  0.08247088  0.06716914  0.68559361     1.04200
O92         O  0.11071605  0.97920309  0.70002618    -0.95400
O93         O  0.09128957  0.95114091  0.77472468    -0.91200
O94         O  0.05246788  0.92496035  0.81298728    -0.84300
C95         C  0.08140682  0.92768713  0.79812716     1.10800
O96         O  0.00378436  0.10392932  0.79917650    -0.97400
Zr97       Zr  0.00000263  0.04573337  0.80910166     1.88900
O98         O  0.00050787  0.97298653  0.88039997    -0.74100
O99         O  0.10235217  0.02030834  0.79737131    -0.53300
O100        O  0.04804620  0.06644031  0.84492960    -0.98000
O101        O  0.95365172  0.07514714  0.83733318    -0.55200
O102        O  0.99645691  0.02750911  0.88199806    -0.74600
C103        C  0.99790545  0.00004616  0.90033422     0.97800
O104        O  0.99522940  0.90301084  0.84419205    -0.63400
O105        O  0.89304587  0.97722803  0.69620821    -0.58200
O106        O  0.95024413  0.92320880  0.80823170    -0.94900
O107        O  0.91089588  0.95037768  0.77241208    -0.93300
O108        O  0.95177011  0.92822557  0.64430408    -0.93700
O109        O  0.99836112  0.89346120  0.68513519    -0.92400
C110        C  0.92121888  0.92627520  0.79409214     1.16600
H111        H  0.95187480  0.99862138  0.65297646     0.32600
H112        H  0.04321274  0.93213724  0.73694717     0.43400
H113        H  0.95158012  0.99884768  0.83273821     0.36900
H114        H  0.04456149  0.06487427  0.74887495     0.33400
H115        H  0.03750684  0.91324867  0.61947598     0.25200
H116        H  0.12416220  0.01410285  0.78723201     0.31100
H117        H  0.04022421  0.07530617  0.87257045     0.37000
H118        H  0.95930972  0.91919182  0.61662053     0.31500
H119        H  0.87260734  0.98618276  0.70761529     0.30400
H120        H  0.87473842  0.01057101  0.78460848     0.32100
H121        H  0.96085538  0.08358430  0.86548469     0.31000
H122        H  0.98999566  0.89003925  0.71457039     0.35000
H123        H  0.00512715  0.88640424  0.82549047     0.27800
H124        H  0.01320921  0.09238184  0.61712204     0.32000
H125        H  0.00633319  0.11326877  0.82823592     0.34800
H126        H  0.89616022  0.98799808  0.66821499     0.27500
H127        H  0.00980726  0.90472591  0.86927232     0.40300
H128        H  0.10162865  0.96133867  0.68281587     0.30400
H129        H  0.06038068  0.94085594  0.63543140     0.38000
H130        H  0.93757775  0.05834986  0.84450463     0.29900
H131        H  0.10146500  0.04393264  0.79324137     0.29900
H132        H  0.00554603  0.11079854  0.66011232     0.30200
Zr133      Zr  0.29349887  0.24836278  0.06438231     2.17500
O134        O  0.34380417  0.25072393  0.02355445    -0.52200
O135        O  0.27568909  0.24776775  0.98913960    -0.75400
O136        O  0.32287815  0.19647501  0.06276157    -0.82200
O137        O  0.29549477  0.33788345  0.09579319    -0.83900
O138        O  0.29516320  0.15847558  0.10027112    -0.79500
O139        O  0.32497574  0.29862905  0.06354736    -0.91200
O140        O  0.22098690  0.24700141  0.98553424    -0.77100
O141        O  0.24782214  0.21337079  0.06290810    -0.86600
O142        O  0.24707210  0.28235261  0.05834954    -0.86300
O143        O  0.29502171  0.22004901  0.13179585    -0.73100
O144        O  0.29274877  0.28245003  0.12673831    -0.85200
Zr145      Zr  0.20139714  0.25039862  0.18754052     2.26400
Zr146      Zr  0.24868667  0.18528252  0.13025350     2.06300
Zr147      Zr  0.24550118  0.31490354  0.12169881     2.10000
Zr148      Zr  0.20154509  0.24751823  0.05810658     1.78800
O149        O  0.26083725  0.36280142  0.16201674    -0.94000
O150        O  0.17872523  0.19936701  0.02508459    -0.41800
O151        O  0.19953362  0.28030938  0.12128578    -0.78400
O152        O  0.20118110  0.21778840  0.12318032    -0.97100
O153        O  0.24858103  0.21813079  0.19339885    -0.90400
O154        O  0.24624226  0.28659543  0.18854762    -0.93300
C155        C  0.24892708  0.24747616  0.96812760     1.00500
C156        C  0.32096815  0.32788633  0.07637845     1.13400
C157        C  0.31968670  0.16790967  0.07856494     1.04200
O158        O  0.23080513  0.14107736  0.08465967    -0.95400
O159        O  0.20291430  0.15942486  0.16376950    -0.91200
O160        O  0.17181622  0.19904498  0.19280119    -0.84300
C161        C  0.17734444  0.16947667  0.18264982     1.10800
O162        O  0.35155890  0.26273310  0.18585053    -0.97400
Zr163      Zr  0.29350968  0.25415252  0.19287909     1.88900
O164        O  0.22072759  0.25152630  0.26251156    -0.74100
O165        O  0.26857420  0.15009752  0.18692178    -0.53300
O166        O  0.32331053  0.20846060  0.22180775    -0.98000
O167        O  0.31217522  0.30310034  0.22852544    -0.55200
O168        O  0.27543164  0.24897103  0.26504352    -0.74600
C169        C  0.24776323  0.24969294  0.28289030     0.97800
O170        O  0.15267848  0.25328054  0.23150732    -0.63400
O171        O  0.22347365  0.34839041  0.06450796    -0.58200
O172        O  0.16930658  0.29987027  0.18743324    -0.94900
O173        O  0.19963668  0.33923744  0.15705782    -0.93300
O174        O  0.17613245  0.29396484  0.02445125    -0.93700
O175        O  0.14287354  0.24565021  0.06381434    -0.92400
C176        C  0.17419556  0.32933186  0.17651693     1.16600
H177        H  0.24809519  0.29556263  0.03287663     0.32600
H178        H  0.18192053  0.20509509  0.11927741     0.43400
H179        H  0.24459892  0.30145222  0.21234829     0.36900
H180        H  0.31499785  0.20873450  0.13634263     0.33400
H181        H  0.16619017  0.20738483  0.00024035     0.25200
H182        H  0.26031421  0.12843544  0.17936897     0.31100
H183        H  0.33208055  0.21611052  0.24955522     0.37000
H184        H  0.16604534  0.28536585  0.99799553     0.31500
H185        H  0.21371632  0.36707995  0.07941935     0.30400
H186        H  0.25464017  0.38106911  0.14334657     0.32100
H187        H  0.29532722  0.30861859  0.24987182     0.31000
H188        H  0.13760145  0.26076620  0.08741942     0.35000
H189        H  0.13478666  0.24548268  0.21315153     0.27800
H190        H  0.34138223  0.23475910  0.00013224     0.32000
H191        H  0.36019307  0.26276837  0.21548734     0.34800
H192        H  0.24263199  0.35739184  0.04973318     0.27500
H193        H  0.15517102  0.23673071  0.25413642     0.40300
H194        H  0.20878828  0.14728633  0.07546246     0.30400
H195        H  0.19738596  0.18807862  0.01204597     0.38000
H196        H  0.31044347  0.32009438  0.20637497     0.29900
H197        H  0.25643469  0.15621083  0.21309523     0.29900
H198        H  0.36073872  0.24172648  0.04249924     0.30200
Zr199      Zr  0.29791107  0.25243832  0.56346958     2.17500
O200        O  0.34675305  0.25872903  0.52052648    -0.52200
O201        O  0.28017870  0.25445023  0.48822712    -0.75400
O202        O  0.32631967  0.20031985  0.55542084    -0.82200
O203        O  0.30333481  0.33951182  0.60605139    -0.83900
O204        O  0.29198673  0.16127560  0.57784503    -0.79500
O205        O  0.33041619  0.30196780  0.56715577    -0.91200
O206        O  0.22572077  0.25967379  0.48515514    -0.77100
O207        O  0.24992340  0.22125823  0.55594044    -0.86600
O208        O  0.25361632  0.28944124  0.56343958    -0.86300
O209        O  0.29742848  0.21793647  0.62590669    -0.73100
O210        O  0.29921928  0.28046337  0.63112605    -0.85200
Zr211      Zr  0.20500192  0.24897481  0.68569028     2.26400
Zr212      Zr  0.24898515  0.18703189  0.61767500     2.06300
Zr213      Zr  0.25393938  0.31597587  0.63172597     2.10000
Zr214      Zr  0.20579311  0.25816201  0.55730328     1.78800
O215        O  0.27325450  0.35168166  0.68824223    -0.94000
O216        O  0.17665288  0.21663647  0.51782606    -0.41800
O217        O  0.20600268  0.28468449  0.62504697    -0.78400
O218        O  0.20305796  0.22225647  0.61675825    -0.97100
O219        O  0.25011371  0.21335380  0.68609268    -0.90400
O220        O  0.25216459  0.28174982  0.69324217    -0.93300
C221        C  0.25347845  0.25759562  0.46754504     1.00500
C222        C  0.32763937  0.33030438  0.58368725     1.13400
C223        C  0.31907577  0.17048114  0.56203128     1.04200
O224        O  0.22860126  0.14733949  0.56690728    -0.95400
O225        O  0.20225584  0.16074437  0.64774033    -0.91200
O226        O  0.17431417  0.19771299  0.68649506    -0.84300
C227        C  0.17796581  0.16916656  0.67071798     1.10800
O228        O  0.35563570  0.24059997  0.68566809    -0.97400
Zr229      Zr  0.29719461  0.24615219  0.69248047     1.88900
O230        O  0.22290205  0.24610787  0.76079151    -0.74100
O231        O  0.26959628  0.14654739  0.66712478    -0.53300
O232        O  0.31569546  0.19650180  0.72610714    -0.98000
O233        O  0.32626382  0.29061381  0.72614326    -0.55200
O234        O  0.27758575  0.24660406  0.76499769    -0.74600
C235        C  0.24952405  0.24604159  0.78210020     0.97800
O236        O  0.15627190  0.25308848  0.72949532    -0.63400
O237        O  0.23994954  0.36059290  0.58451387    -0.58200
O238        O  0.17503255  0.30001837  0.68929274    -0.94900
O239        O  0.20589880  0.34028875  0.66192213    -0.93300
O240        O  0.18645501  0.30986129  0.53097165    -0.93700
O241        O  0.14732415  0.26288686  0.56335968    -0.92400
C242        C  0.18024572  0.32989393  0.68042338     1.16600
H243        H  0.25554875  0.30478991  0.54028449     0.32600
H244        H  0.18307042  0.21088201  0.61192167     0.43400
H245        H  0.25134585  0.29459012  0.71909824     0.36900
H246        H  0.31620020  0.20439768  0.62874283     0.33400
H247        H  0.16721007  0.22796803  0.49285150     0.25200
H248        H  0.26025011  0.12599704  0.65681074     0.31100
H249        H  0.32551521  0.18370913  0.70265135     0.37000
H250        H  0.17438028  0.30461259  0.50445660     0.31500
H251        H  0.21695480  0.35707842  0.57721108     0.30400
H252        H  0.27050309  0.37363681  0.67644113     0.32100
H253        H  0.31095639  0.29991669  0.74720410     0.31000
H254        H  0.14320141  0.26451117  0.59460779     0.35000
H255        H  0.13804817  0.24984538  0.70938887     0.27800
H256        H  0.34353256  0.24503792  0.49484474     0.32000
H257        H  0.36389636  0.23920455  0.71543003     0.34800
H258        H  0.23986404  0.37982946  0.60333148     0.27500
H259        H  0.15605784  0.23392108  0.74834018     0.40300
H260        H  0.20945426  0.15766692  0.55383207     0.30400
H261        H  0.19373355  0.20283817  0.50528945     0.38000
H262        H  0.32805130  0.30718404  0.70343441     0.29900
H263        H  0.29291009  0.14477822  0.66046265     0.29900
H264        H  0.36406998  0.24798930  0.53705152     0.30200
Zr265      Zr  0.29633589  0.75000337  0.43845852     2.17500
O266        O  0.34466671  0.74535451  0.48274983    -0.52200
O267        O  0.27729405  0.74785063  0.51337500    -0.75400
O268        O  0.32478051  0.80240247  0.44401568    -0.82200
O269        O  0.29707254  0.65912170  0.41058296    -0.83900
O270        O  0.29226509  0.84101649  0.41587339    -0.79500
O271        O  0.32877178  0.70014735  0.43472733    -0.91200
O272        O  0.22257471  0.74856186  0.51521308    -0.77100
O273        O  0.24954025  0.78362249  0.44098674    -0.86600
O274        O  0.25074391  0.71474014  0.44098703    -0.86300
O275        O  0.29781007  0.78126026  0.37304922    -0.73100
O276        O  0.29759433  0.71783602  0.37430191    -0.85200
Zr277      Zr  0.20578308  0.74927223  0.31353698     2.26400
Zr278      Zr  0.25016189  0.81416242  0.37562688     2.06300
Zr279      Zr  0.25112249  0.68388444  0.37600079     2.10000
Zr280      Zr  0.20419368  0.74818895  0.44255667     1.78800
O281        O  0.27348220  0.64633179  0.32371497    -0.94000
O282        O  0.17659920  0.79332921  0.47670121    -0.41800
O283        O  0.20451198  0.71753119  0.37794655    -0.78400
O284        O  0.20348092  0.78007303  0.37924119    -0.97100
O285        O  0.25192910  0.78340072  0.31065533    -0.90400
O286        O  0.25172997  0.71447914  0.31090851    -0.93300
C287        C  0.25010193  0.74763079  0.53351951     1.00500
C288        C  0.32341555  0.67014116  0.42643009     1.13400
C289        C  0.31838575  0.83200523  0.43445681     1.04200
O290        O  0.22926108  0.85936048  0.41699185    -0.95400
O291        O  0.20361146  0.83963567  0.34249185    -0.91200
O292        O  0.17677153  0.80064873  0.30546357    -0.84300
C293        C  0.17999431  0.82970694  0.31930393     1.10800
O294        O  0.35641774  0.74937558  0.31943320    -0.97400
Zr295      Zr  0.29793936  0.74876445  0.30991978     1.88900
O296        O  0.22510241  0.75132815  0.23907812    -0.74100
O297        O  0.27504146  0.84902318  0.32214778    -0.53300
O298        O  0.32061558  0.79613170  0.27498250    -0.98000
O299        O  0.32392490  0.70207389  0.27709409    -0.55200
O300        O  0.27982165  0.74874325  0.23719435    -0.74600
C301        C  0.25229249  0.75063862  0.21904435     0.97800
O302        O  0.15465360  0.74348454  0.27527997    -0.63400
O303        O  0.23007170  0.64074887  0.42118129    -0.58200
O304        O  0.17539581  0.69867876  0.31019822    -0.94900
O305        O  0.20279696  0.65986065  0.34654971    -0.93300
O306        O  0.18306509  0.69926008  0.47514433    -0.93700
O307        O  0.14566657  0.74542022  0.43562676    -0.92400
C308        C  0.17869489  0.66975298  0.32435068     1.16600
H309        H  0.25173421  0.70074467  0.46566907     0.32600
H310        H  0.18363702  0.79197883  0.38220084     0.43400
H311        H  0.25089121  0.70049681  0.28611589     0.36900
H312        H  0.31706977  0.79412163  0.36989667     0.33400
H313        H  0.16564855  0.78392722  0.50204230     0.25200
H314        H  0.27051397  0.87112166  0.33250283     0.31100
H315        H  0.33198843  0.78777232  0.24930717     0.37000
H316        H  0.17754884  0.68512579  0.45059658     0.31500
H317        H  0.24270355  0.62143217  0.41304604     0.30400
H318        H  0.27418564  0.62538327  0.33883290     0.32100
H319        H  0.30765200  0.69290938  0.25727436     0.31000
H320        H  0.14164044  0.74714823  0.40438462     0.35000
H321        H  0.13801703  0.75356079  0.29379373     0.27800
H322        H  0.34120144  0.76015518  0.50726066     0.32000
H323        H  0.36574842  0.74844298  0.29017776     0.34800
H324        H  0.23733721  0.64593096  0.45064591     0.27500
H325        H  0.15636640  0.75775059  0.24991805     0.40300
H326        H  0.22149127  0.84964610  0.44409920     0.30400
H327        H  0.19413483  0.80666903  0.48897739     0.38000
H328        H  0.32553839  0.68612027  0.30058694     0.29900
H329        H  0.29856885  0.84628262  0.32648221     0.29900
H330        H  0.36232912  0.75521908  0.46581959     0.30200
Zr331      Zr  0.29759601  0.74932923  0.93627311     2.17500
O332        O  0.34953969  0.74648613  0.97312388    -0.52200
O333        O  0.28172258  0.74933916  0.01218208    -0.75400
O334        O  0.32505194  0.80210661  0.94056766    -0.82200
O335        O  0.29877728  0.65866621  0.90894675    -0.83900
O336        O  0.29426427  0.84007578  0.90740122    -0.79500
O337        O  0.32959127  0.69967449  0.93522640    -0.91200
O338        O  0.22713129  0.75164664  0.01765725    -0.77100
O339        O  0.25049153  0.78190475  0.94252923    -0.86600
O340        O  0.25285049  0.71325746  0.94248276    -0.86300
O341        O  0.29597297  0.77986834  0.87067973    -0.73100
O342        O  0.29692444  0.71694002  0.87217488    -0.85200
Zr343      Zr  0.20211616  0.74692211  0.81752343     2.26400
Zr344      Zr  0.24829646  0.81227945  0.87722880     2.06300
Zr345      Zr  0.25100808  0.68234850  0.87756743     2.10000
Zr346      Zr  0.20580330  0.74574998  0.94689502     1.78800
O347        O  0.27137831  0.64324465  0.82588916    -0.94000
O348        O  0.17645242  0.79129228  0.97725363    -0.41800
O349        O  0.20383850  0.71516934  0.88215393    -0.78400
O350        O  0.20233500  0.77727308  0.88348045    -0.97100
O351        O  0.24757562  0.78175202  0.81182521    -0.90400
O352        O  0.24844817  0.71277424  0.81240466    -0.93300
C353        C  0.25536186  0.75097229  0.03397845     1.00500
C354        C  0.32463988  0.66986945  0.92591834     1.13400
C355        C  0.31963161  0.83110701  0.92762504     1.04200
O356        O  0.22950074  0.85392286  0.92640872    -0.95400
O357        O  0.20026878  0.83772949  0.84996474    -0.91200
O358        O  0.17309596  0.79921316  0.81249137    -0.84300
C359        C  0.17623479  0.82808330  0.82756359     1.10800
O360        O  0.35265085  0.75085529  0.81124514    -0.97400
Zr361      Zr  0.29391317  0.74765628  0.80764317     1.88900
O362        O  0.21852223  0.74600624  0.74132362    -0.74100
O363        O  0.26681358  0.85016109  0.82286251    -0.53300
O364        O  0.31443202  0.79553351  0.77150606    -0.98000
O365        O  0.32005882  0.70109787  0.77478162    -0.55200
O366        O  0.27313109  0.74501863  0.73618971    -0.74600
C367        C  0.24500147  0.74522520  0.71951409     0.97800
O368        O  0.14984089  0.74250879  0.78191345    -0.63400
O369        O  0.23187057  0.64070601  0.92657843    -0.58200
O370        O  0.17241794  0.69563279  0.81812851    -0.94900
O371        O  0.20322272  0.65673357  0.84891446    -0.93300
O372        O  0.18967602  0.69679023  0.98421262    -0.93700
O373        O  0.14749907  0.73795183  0.94788630    -0.92400
C374        C  0.17749520  0.66629979  0.82987533     1.16600
H375        H  0.25516916  0.69955395  0.96730707     0.32600
H376        H  0.18236427  0.78866265  0.88783771     0.43400
H377        H  0.24693775  0.69851640  0.78795427     0.36900
H378        H  0.31515037  0.79252435  0.86597335     0.33400
H379        H  0.17008061  0.78426622  0.00641956     0.25200
H380        H  0.26246613  0.87168499  0.83530647     0.31100
H381        H  0.29535521  0.80541344  0.75763103     0.37000
H382        H  0.18388520  0.68148863  0.96105646     0.31500
H383        H  0.24043616  0.62033041  0.91457627     0.30400
H384        H  0.26002112  0.62292621  0.83290530     0.32100
H385        H  0.30302268  0.69024496  0.75780035     0.31000
H386        H  0.14190078  0.73225986  0.91792484     0.35000
H387        H  0.13393426  0.75256618  0.80154936     0.27800
H388        H  0.34820478  0.76218844  0.99702154     0.32000
H389        H  0.36011857  0.75152810  0.78104723     0.34800
H390        H  0.24412496  0.64389044  0.95351750     0.27500
H391        H  0.15102283  0.75707092  0.75681689     0.40300
H392        H  0.23642246  0.84662788  0.95520954     0.30400
H393        H  0.19309570  0.80801448  0.98217903     0.38000
H394        H  0.32432624  0.68623682  0.79894901     0.29900
H395        H  0.25125579  0.84814428  0.79888169     0.29900
H396        H  0.36558890  0.75566789  0.95295802     0.30200
Zr397      Zr  0.49699380  0.95425477  0.94007789     2.17500
O398        O  0.49998880  0.90183227  0.90471187    -0.52200
O399        O  0.49629124  0.97142514  0.86463602    -0.75400
O400        O  0.44416790  0.92692399  0.93433354    -0.82200
O401        O  0.58712619  0.94989688  0.97214714    -0.83900
O402        O  0.40678368  0.95473838  0.97306480    -0.79500
O403        O  0.54753961  0.92358732  0.93552014    -0.91200
O404        O  0.50101881  0.02584038  0.86160917    -0.77100
O405        O  0.46408415  0.00131716  0.93660513    -0.86600
O406        O  0.53329735  0.99886200  0.93595623    -0.86300
O407        O  0.46701942  0.95416296  0.00642281    -0.73100
O408        O  0.52920929  0.95304239  0.00430820    -0.85200
Zr409      Zr  0.49985816  0.04615707  0.06340150     2.26400
Zr410      Zr  0.43395365  0.00157119  0.00243710     2.06300
Zr411      Zr  0.56407860  0.99872299  0.00103544     2.10000
Zr412      Zr  0.50062924  0.04578704  0.93388584     1.78800
O413        O  0.60370959  0.98048109  0.05334026    -0.94000
O414        O  0.45644855  0.07282307  0.89686967    -0.41800
O415        O  0.53146401  0.04603755  0.99851427    -0.78400
O416        O  0.46912918  0.04736753  0.99759161    -0.97100
O417        O  0.46488855  0.00071631  0.06754514    -0.90400
O418        O  0.53393167  0.99991050  0.06668623    -0.93300
C419        C  0.49884380  0.99814234  0.84399822     1.00500
C420        C  0.57670893  0.92635897  0.94937515     1.13400
C421        C  0.41558421  0.93064154  0.95005342     1.04200
O422        O  0.39432526  0.02187845  0.95148335    -0.95400
O423        O  0.40915853  0.04858758  0.03403940    -0.91200
O424        O  0.44882287  0.07657981  0.06840267    -0.84300
C425        C  0.41955281  0.07293629  0.05519978     1.10800
O426        O  0.50173009  0.89583902  0.06562017    -0.97400
Zr427      Zr  0.49904425  0.95446412  0.06961985     1.88900
O428        O  0.49770863  0.02805810  0.13874909    -0.74100
O429        O  0.39281215  0.98694539  0.05492760    -0.53300
O430        O  0.45094236  0.92876616  0.09898832    -0.98000
O431        O  0.54716398  0.93275799  0.10422584    -0.55200
O432        O  0.49466071  0.97354782  0.14195554    -0.74600
C433        C  0.49521653  0.00132120  0.15951323     0.97800
O434        O  0.50591649  0.09728338  0.10138460    -0.63400
O435        O  0.60628423  0.01580637  0.95132029    -0.58200
O436        O  0.55187392  0.07445552  0.06685876    -0.94900
O437        O  0.58940060  0.04660467  0.02883153    -0.93300
O438        O  0.55079087  0.06801214  0.90582636    -0.93700
O439        O  0.50014252  0.10435456  0.93869900    -0.92400
C440        C  0.58074133  0.07042768  0.05228744     1.16600
H441        H  0.54711411  0.99724081  0.91108074     0.32600
H442        H  0.45758943  0.06727599  0.99373359     0.43400
H443        H  0.54809224  0.00106308  0.09127859     0.36900
H444        H  0.45481674  0.93467928  0.01012061     0.33400
H445        H  0.46576724  0.08026041  0.86930802     0.25200
H446        H  0.37463667  0.97801356  0.03805301     0.31100
H447        H  0.45786297  0.91932933  0.12664762     0.37000
H448        H  0.54447693  0.07888968  0.87884452     0.31500
H449        H  0.62656062  0.00738225  0.96384128     0.30400
H450        H  0.62412462  0.97844505  0.03699202     0.32100
H451        H  0.55383435  0.94908084  0.12565003     0.31000
H452        H  0.50763190  0.10908436  0.96822264     0.35000
H453        H  0.49771718  0.11403130  0.08157466     0.27800
H454        H  0.48489222  0.90297981  0.88012313     0.32000
H455        H  0.50287661  0.88818885  0.09568386     0.34800
H456        H  0.60308992  0.00283435  0.92498416     0.27500
H457        H  0.49012738  0.09663921  0.12526822     0.40300
H458        H  0.39927412  0.01078702  0.92410611     0.30400
H459        H  0.44139475  0.05533423  0.88869923     0.38000
H460        H  0.56412671  0.93351562  0.08183762     0.29900
H461        H  0.40194494  0.96825055  0.07038269     0.29900
H462        H  0.49009885  0.88626692  0.92490156     0.30200
Zr463      Zr  0.49925137  0.95411786  0.44117739     2.17500
O464        O  0.50449079  0.90400843  0.40071535    -0.52200
O465        O  0.49861133  0.97198264  0.36576713    -0.75400
O466        O  0.44760165  0.92447642  0.43639909    -0.82200
O467        O  0.58881838  0.95012657  0.47915612    -0.83900
O468        O  0.40756301  0.95591435  0.46402295    -0.79500
O469        O  0.55005940  0.92352132  0.44119725    -0.91200
O470        O  0.50147595  0.02648736  0.36238730    -0.77100
O471        O  0.46587118  0.00066380  0.43605889    -0.86600
O472        O  0.53510645  0.99922704  0.43846134    -0.86300
O473        O  0.46713892  0.95362684  0.50598947    -0.73100
O474        O  0.53020179  0.95395429  0.50649004    -0.85200
Zr475      Zr  0.49782546  0.04657475  0.56310852     2.26400
Zr476      Zr  0.43379273  0.00059180  0.50022564     2.06300
Zr477      Zr  0.56481219  0.99988653  0.50454180     2.10000
Zr478      Zr  0.50170459  0.04571890  0.43466898     1.78800
O479        O  0.60330246  0.98391962  0.55961109    -0.94000
O480        O  0.45796877  0.07401085  0.39848360    -0.41800
O481        O  0.53115596  0.04629465  0.50006465    -0.78400
O482        O  0.46797673  0.04717947  0.49649966    -0.97100
O483        O  0.46338401  0.00065021  0.56633778    -0.90400
O484        O  0.53261235  0.00087521  0.56841519    -0.93300
C485        C  0.50026383  0.99871964  0.34492065     1.00500
C486        C  0.57879874  0.92624706  0.45663047     1.13400
C487        C  0.41780207  0.93010304  0.44592112     1.04200
O488        O  0.39424939  0.02280611  0.45058376    -0.95400
O489        O  0.40707956  0.04547046  0.53492251    -0.91200
O490        O  0.44631900  0.07610343  0.56587718    -0.84300
C491        C  0.41689446  0.07086267  0.55443479     1.10800
O492        O  0.50413908  0.89678464  0.56238129    -0.97400
Zr493      Zr  0.49817936  0.95494414  0.57010048     1.88900
O494        O  0.49699514  0.02905012  0.63846908    -0.74100
O495        O  0.39386551  0.97879520  0.54980731    -0.53300
O496        O  0.45093933  0.92644369  0.59727050    -0.98000
O497        O  0.54463634  0.93475440  0.60996708    -0.55200
O498        O  0.49082681  0.97477895  0.64165008    -0.74600
C499        C  0.49306578  0.00249715  0.65914960     0.97800
O500        O  0.50165525  0.09741950  0.60229672    -0.63400
O501        O  0.60767554  0.01651672  0.45556973    -0.58200
O502        O  0.54814464  0.07762213  0.56472931    -0.94900
O503        O  0.58799223  0.04995915  0.53028280    -0.93300
O504        O  0.55200767  0.06525586  0.40358826    -0.93700
O505        O  0.50474518  0.10405922  0.44229046    -0.92400
C506        C  0.57728054  0.07452753  0.55089647     1.16600
H507        H  0.54948396  0.99775698  0.41411279     0.32600
H508        H  0.45571770  0.06663268  0.49211059     0.43400
H509        H  0.54606161  0.00230877  0.59365425     0.36900
H510        H  0.45454587  0.93431654  0.50982984     0.33400
H511        H  0.46791402  0.08314333  0.37225168     0.25200
H512        H  0.37341514  0.97845923  0.53335948     0.31100
H513        H  0.45706340  0.91934572  0.62647313     0.37000
H514        H  0.54541892  0.08171341  0.38236225     0.31500
H515        H  0.62772956  0.01531713  0.47279338     0.30400
H516        H  0.62405400  0.98136042  0.54416799     0.32100
H517        H  0.54891479  0.95087174  0.63270821     0.31000
H518        H  0.50782879  0.10770738  0.47344263     0.35000
H519        H  0.49358228  0.11419926  0.58244603     0.27800
H520        H  0.48818640  0.90527785  0.37753484     0.32000
H521        H  0.50422570  0.88805229  0.59194071     0.34800
H522        H  0.60975347  0.99887463  0.43434486     0.27500
H523        H  0.48523280  0.09613013  0.62537046     0.40300
H524        H  0.40005382  0.01369505  0.42221276     0.30400
H525        H  0.44352139  0.05676465  0.38782175     0.38000
H526        H  0.56301561  0.93702597  0.58987262     0.29900
H527        H  0.39977158  0.95582490  0.55311081     0.29900
H528        H  0.49657346  0.88684539  0.42011120     0.30200
Zr529      Zr  0.70628656  0.75231625  0.43551493     2.17500
O530        O  0.65531153  0.75703959  0.47446229    -0.52200
O531        O  0.72589538  0.75253846  0.50970667    -0.75400
O532        O  0.67891465  0.70003963  0.44549369    -0.82200
O533        O  0.70020422  0.84075403  0.39693717    -0.83900
O534        O  0.70769547  0.66140386  0.41091727    -0.79500
O535        O  0.67527758  0.80268893  0.43780429    -0.91200
O536        O  0.78068920  0.75336731  0.51067312    -0.77100
O537        O  0.75312273  0.71909298  0.43819081    -0.86600
O538        O  0.75171033  0.78789364  0.43634837    -0.86300
O539        O  0.70374892  0.72014505  0.37103361    -0.73100
O540        O  0.70407591  0.78300429  0.37032223    -0.85200
Zr541      Zr  0.79467681  0.75074607  0.30789264     2.26400
Zr542      Zr  0.75147742  0.68747504  0.37387930     2.06300
Zr543      Zr  0.75023052  0.81744902  0.37031729     2.10000
Zr544      Zr  0.79840387  0.75455764  0.43729772     1.78800
O545        O  0.73417438  0.85978870  0.32072187    -0.94000
O546        O  0.82603889  0.70868530  0.46932810    -0.41800
O547        O  0.79695400  0.78379088  0.37141635    -0.78400
O548        O  0.79804776  0.72154586  0.37474428    -0.97100
O549        O  0.74861311  0.71649651  0.30777664    -0.90400
O550        O  0.74862511  0.78555914  0.30590294    -0.93300
C551        C  0.75322053  0.75248309  0.52932157     1.00500
C552        C  0.67700233  0.83100344  0.42107635     1.13400
C553        C  0.68372124  0.67061017  0.43378742     1.04200
O554        O  0.77530230  0.64989290  0.42480199    -0.95400
O555        O  0.79570751  0.66143003  0.33716462    -0.91200
O556        O  0.82539012  0.69972259  0.30372868    -0.84300
C557        C  0.82089741  0.67048881  0.31642550     1.10800
O558        O  0.64429407  0.75340492  0.31779771    -0.97400
Zr559      Zr  0.70257792  0.75103263  0.30685111     1.88900
O560        O  0.77374811  0.75145532  0.23390643    -0.74100
O561        O  0.73050944  0.64522122  0.32726650    -0.53300
O562        O  0.67445988  0.70435373  0.27757211    -0.98000
O563        O  0.67914844  0.79849401  0.27294543    -0.55200
O564        O  0.71936204  0.74488252  0.23371386    -0.74600
C565        C  0.74649568  0.74762850  0.21464985     0.97800
O566        O  0.84168690  0.74815895  0.26073997    -0.63400
O567        O  0.76877748  0.85690429  0.42295633    -0.58200
O568        O  0.82615187  0.80070066  0.30564862    -0.94900
O569        O  0.79905945  0.84070610  0.34035501    -0.93300
O570        O  0.82135129  0.80327614  0.46844949    -0.93700
O571        O  0.85689517  0.75742807  0.42971425    -0.92400
C572        C  0.82324800  0.82985375  0.31900735     1.16600
H573        H  0.75095193  0.80205384  0.46096743     0.32600
H574        H  0.81777524  0.70947803  0.37793461     0.43400
H575        H  0.74892460  0.79918686  0.28081369     0.36900
H576        H  0.68430586  0.70744660  0.36909541     0.33400
H577        H  0.83712702  0.71760539  0.49486500     0.25200
H578        H  0.73342447  0.62506669  0.34378287     0.31100
H579        H  0.69181663  0.68909178  0.26955737     0.37000
H580        H  0.82951492  0.79664641  0.49696990     0.31500
H581        H  0.77036711  0.87739958  0.40688729     0.30400
H582        H  0.73902987  0.88011046  0.33608875     0.32100
H583        H  0.68809356  0.79890127  0.24348289     0.31000
H584        H  0.86068982  0.75606158  0.39837368     0.35000
H585        H  0.83841550  0.76515074  0.23888903     0.27800
H586        H  0.65721819  0.74242728  0.49943628     0.32000
H587        H  0.63470147  0.75351744  0.28868781     0.34800
H588        H  0.75037867  0.86016873  0.44281430     0.27500
H589        H  0.86025902  0.75564283  0.27810163     0.40300
H590        H  0.79892489  0.65296148  0.42194888     0.30400
H591        H  0.80852031  0.69518150  0.48134408     0.38000
H592        H  0.68952000  0.81697601  0.28753897     0.29900
H593        H  0.70685156  0.64866038  0.32671931     0.29900
H594        H  0.63876820  0.74702494  0.45576593     0.30200
Zr595      Zr  0.70101897  0.75030452  0.93126703     2.17500
O596        O  0.64908298  0.75469550  0.96790618    -0.52200
O597        O  0.71606312  0.74955603  0.00770998    -0.75400
O598        O  0.67245006  0.69810646  0.93496434    -0.82200
O599        O  0.69778026  0.83968245  0.89488702    -0.83900
O600        O  0.70352427  0.65986361  0.90318391    -0.79500
O601        O  0.67061886  0.80092823  0.93207088    -0.91200
O602        O  0.77029154  0.75607626  0.01346686    -0.77100
O603        O  0.74749398  0.71693427  0.93746679    -0.86600
O604        O  0.74618277  0.78579090  0.93780517    -0.86300
O605        O  0.70213960  0.71999808  0.86509226    -0.73100
O606        O  0.70277181  0.78244958  0.86706998    -0.85200
Zr607      Zr  0.79706383  0.75108516  0.81330938     2.26400
Zr608      Zr  0.74930194  0.68687469  0.87181253     2.06300
Zr609      Zr  0.74904251  0.81662709  0.87295493     2.10000
Zr610      Zr  0.79260360  0.75244369  0.94262119     1.78800
O611        O  0.73604714  0.85980191  0.82300850    -0.94000
O612        O  0.81458514  0.70735343  0.98321642    -0.41800
O613        O  0.79547841  0.78281398  0.87788977    -0.78400
O614        O  0.79612407  0.72043952  0.87915599    -0.97100
O615        O  0.75094715  0.71728170  0.80657186    -0.90400
O616        O  0.75159889  0.78615916  0.80760019    -0.93300
C617        C  0.74211959  0.75328493  0.02969343     1.00500
C618        C  0.67363378  0.82962849  0.91700894     1.13400
C619        C  0.67783285  0.66889377  0.92273521     1.04200
O620        O  0.76933545  0.64694899  0.92238989    -0.95400
O621        O  0.79489289  0.66054462  0.83935327    -0.91200
O622        O  0.82599905  0.69928442  0.80865267    -0.84300
C623        C  0.82048200  0.66994377  0.81998719     1.10800
O624        O  0.64661065  0.75481521  0.80165715    -0.97400
Zr625      Zr  0.70542817  0.75225476  0.80206252     1.88900
O626        O  0.78168799  0.75120355  0.73702698    -0.74100
O627        O  0.73141776  0.64679760  0.81984140    -0.53300
O628        O  0.67956306  0.70560108  0.76916631    -0.98000
O629        O  0.68576424  0.80148196  0.76831275    -0.55200
O630        O  0.72713461  0.74938974  0.73092425    -0.74600
C631        C  0.75548104  0.75019806  0.71483550     0.97800
O632        O  0.84951243  0.75572971  0.77796302    -0.63400
O633        O  0.76463289  0.85469789  0.92895340    -0.58200
O634        O  0.82723261  0.80169869  0.81255894    -0.94900
O635        O  0.79937595  0.84054546  0.84866139    -0.93300
O636        O  0.81544948  0.80246496  0.96999026    -0.93700
O637        O  0.85136296  0.74986195  0.94375834    -0.92400
C638        C  0.82390267  0.83045343  0.82729273     1.16600
H639        H  0.74393325  0.79967225  0.96252250     0.32600
H640        H  0.81549367  0.70801468  0.88359868     0.43400
H641        H  0.75381944  0.80031051  0.78316079     0.36900
H642        H  0.68284569  0.70750134  0.86037903     0.33400
H643        H  0.82222134  0.71685149  0.01056857     0.25200
H644        H  0.73326427  0.62595847  0.83508144     0.31100
H645        H  0.69734791  0.69361957  0.75511593     0.37000
H646        H  0.82490520  0.79665889  0.99811182     0.31500
H647        H  0.76749358  0.87547540  0.91387699     0.30400
H648        H  0.74432963  0.87961787  0.83688977     0.32100
H649        H  0.70254652  0.80779112  0.74727240     0.31000
H650        H  0.85811593  0.75974131  0.91626483     0.35000
H651        H  0.86541414  0.74644888  0.79821772     0.27800
H652        H  0.64857935  0.73717157  0.98944030     0.32000
H653        H  0.64042606  0.75648074  0.77103039     0.34800
H654        H  0.74507820  0.85784282  0.94679050     0.27500
H655        H  0.84885261  0.74052534  0.75348397     0.40300
H656        H  0.79173857  0.65381209  0.92870489     0.30400
H657        H  0.79554377  0.69431166  0.99146490     0.38000
H658        H  0.68705295  0.81806770  0.79110591     0.29900
H659        H  0.70788878  0.65040190  0.81694500     0.29900
H660        H  0.63264436  0.74870181  0.94629212     0.30200
Zr661      Zr  0.70348367  0.24906006  0.06723543     2.17500
O662        O  0.65259257  0.24419372  0.02824866    -0.52200
O663        O  0.72207721  0.24851341  0.99214267    -0.75400
O664        O  0.67398484  0.30038556  0.06081980    -0.82200
O665        O  0.70162857  0.16012191  0.10166275    -0.83900
O666        O  0.70409634  0.34051173  0.09043385    -0.79500
O667        O  0.67293389  0.19855041  0.06650066    -0.91200
O668        O  0.77650856  0.25456271  0.98966568    -0.77100
O669        O  0.74943726  0.28340052  0.06290503    -0.86600
O670        O  0.74955458  0.21441888  0.06487958    -0.86300
O671        O  0.70155083  0.28078497  0.13217827    -0.73100
O672        O  0.70299026  0.21803889  0.13236991    -0.85200
Zr673      Zr  0.79451864  0.25108319  0.19104101     2.26400
Zr674      Zr  0.74832772  0.31463638  0.12757065     2.06300
Zr675      Zr  0.74970422  0.18453997  0.13071289     2.10000
Zr676      Zr  0.79544207  0.24891993  0.06197187     1.78800
O677        O  0.73150344  0.14671085  0.18538507    -0.94000
O678        O  0.82535472  0.29477778  0.03370873    -0.41800
O679        O  0.79564990  0.21890553  0.12703570    -0.78400
O680        O  0.79574114  0.28145552  0.12499712    -0.97100
O681        O  0.74802457  0.28485906  0.19351173    -0.90400
O682        O  0.74904459  0.21585303  0.19521744    -0.93300
C683        C  0.74891217  0.25210219  0.97171864     1.00500
C684        C  0.67686346  0.16968836  0.08055886     1.13400
C685        C  0.67896808  0.33007909  0.07087484     1.04200
O686        O  0.77024518  0.35495886  0.07885405    -0.95400
O687        O  0.79259872  0.34191253  0.16212440    -0.91200
O688        O  0.82092186  0.30386685  0.19838160    -0.84300
C689        C  0.81633321  0.33300482  0.18559729     1.10800
O690        O  0.64406189  0.24573953  0.18822718    -0.97400
Zr691      Zr  0.70254770  0.24971149  0.19632017     1.88900
O692        O  0.77652184  0.24960435  0.26622263    -0.74100
O693        O  0.72561833  0.35397003  0.17718150    -0.53300
O694        O  0.67748304  0.29833838  0.22488408    -0.98000
O695        O  0.67823722  0.20424875  0.23396613    -0.55200
O696        O  0.72182148  0.25321569  0.26874339    -0.74600
C697        C  0.74953915  0.25183577  0.28658679     0.97800
O698        O  0.84613776  0.24888472  0.22882643    -0.63400
O699        O  0.76746771  0.14082638  0.08395315    -0.58200
O700        O  0.82705812  0.20163882  0.19134659    -0.94900
O701        O  0.79977268  0.16178593  0.15657602    -0.93300
O702        O  0.81485819  0.20099959  0.02480515    -0.93700
O703        O  0.85383269  0.24341784  0.06812328    -0.92400
C704        C  0.82438999  0.17267957  0.17689203     1.16600
H705        H  0.74864910  0.20022080  0.04030823     0.32600
H706        H  0.81520566  0.29403820  0.12212736     0.43400
H707        H  0.75026480  0.20216055  0.22024602     0.36900
H708        H  0.68195564  0.29310971  0.13524645     0.33400
H709        H  0.83406899  0.28729719  0.00581431     0.25200
H710        H  0.72927672  0.37504172  0.16313442     0.31100
H711        H  0.66803143  0.29176963  0.25273185     0.37000
H712        H  0.82459058  0.20916416  0.99788291     0.31500
H713        H  0.75938428  0.12095529  0.09784678     0.30400
H714        H  0.73874647  0.12535922  0.17497825     0.32100
H715        H  0.69582029  0.19492843  0.25151026     0.31000
H716        H  0.85778972  0.24081418  0.09927424     0.35000
H717        H  0.86234450  0.25788235  0.20871999     0.27800
H718        H  0.65410477  0.25950239  0.00397676     0.32000
H719        H  0.63493677  0.24918790  0.21726405     0.34800
H720        H  0.75440386  0.14284100  0.05750075     0.27500
H721        H  0.84465962  0.26473858  0.25252810     0.40300
H722        H  0.76265686  0.34842757  0.04998768     0.30400
H723        H  0.80858492  0.31072916  0.02598535     0.38000
H724        H  0.67429363  0.18799549  0.21127707     0.29900
H725        H  0.70195907  0.35069498  0.17570692     0.29900
H726        H  0.63577006  0.25324159  0.04741140     0.30200
Zr727      Zr  0.70169901  0.25149761  0.56854303     2.17500
O728        O  0.65111846  0.24800515  0.52864175    -0.52200
O729        O  0.71874109  0.25230661  0.49272906    -0.75400
O730        O  0.67335808  0.30382570  0.56597589    -0.82200
O731        O  0.69725878  0.16180586  0.60271371    -0.83900
O732        O  0.70471464  0.34165570  0.59810897    -0.79500
O733        O  0.67017869  0.20140069  0.56726817    -0.91200
O734        O  0.77258515  0.24272139  0.48864279    -0.77100
O735        O  0.74875768  0.28426227  0.56398143    -0.86600
O736        O  0.74644656  0.21547181  0.56306860    -0.86300
O737        O  0.70247050  0.28163967  0.63496373    -0.73100
O738        O  0.70170953  0.21936268  0.63277735    -0.85200
Zr739      Zr  0.79638706  0.24921022  0.68925659     2.26400
Zr740      Zr  0.75009516  0.31414906  0.62975657     2.06300
Zr741      Zr  0.74747923  0.18479408  0.62802755     2.10000
Zr742      Zr  0.79348139  0.24825422  0.55982469     1.78800
O743        O  0.73068197  0.14455940  0.68029896    -0.94000
O744        O  0.81432816  0.29320940  0.51773295    -0.41800
O745        O  0.79456333  0.21784746  0.62446011    -0.78400
O746        O  0.79656700  0.27998612  0.62339326    -0.97100
O747        O  0.75052794  0.28355089  0.69477169    -0.90400
O748        O  0.74995674  0.21489384  0.69351665    -0.93300
C749        C  0.74493043  0.24691745  0.47153528     1.00500
C750        C  0.67296617  0.17244000  0.58153475     1.13400
C751        C  0.67888412  0.33291119  0.57862522     1.04200
O752        O  0.76947194  0.35579135  0.58117357    -0.95400
O753        O  0.79678974  0.33982789  0.66009164    -0.91200
O754        O  0.82650964  0.30105631  0.69279938    -0.84300
C755        C  0.82209024  0.33036627  0.68003577     1.10800
O756        O  0.64559693  0.25457154  0.69315145    -0.97400
Zr757      Zr  0.70418076  0.24946657  0.69795824     1.88900
O758        O  0.77891532  0.24833148  0.76504794    -0.74100
O759        O  0.73189364  0.35155805  0.68499498    -0.53300
O760        O  0.68526773  0.29718018  0.73612906    -0.98000
O761        O  0.67560931  0.20311690  0.72730982    -0.55200
O762        O  0.72435944  0.24414571  0.76957902    -0.74600
C763        C  0.75239834  0.24548914  0.78645276     0.97800
O764        O  0.84530362  0.24462912  0.73240629    -0.63400
O765        O  0.76368514  0.14401669  0.57582293    -0.58200
O766        O  0.82758725  0.19854084  0.68491797    -0.94900
O767        O  0.79725023  0.16045651  0.65151403    -0.93300
O768        O  0.81945393  0.19805231  0.53867824    -0.93700
O769        O  0.85209338  0.25323849  0.55790117    -0.92400
C770        C  0.82321960  0.16975384  0.67024957     1.16600
H771        H  0.74446298  0.20139414  0.53852236     0.32600
H772        H  0.81625055  0.29189048  0.61875582     0.43400
H773        H  0.75136315  0.20045878  0.71771811     0.36900
H774        H  0.68329516  0.29429970  0.63976983     0.33400
H775        H  0.82401424  0.28327977  0.49181712     0.25200
H776        H  0.73689753  0.37315739  0.67329208     0.31100
H777        H  0.70437271  0.30538959  0.75180489     0.37000
H778        H  0.82611792  0.20149710  0.50850826     0.31500
H779        H  0.76181884  0.12330062  0.59133313     0.30400
H780        H  0.73251672  0.12374569  0.66494691     0.32100
H781        H  0.66901260  0.20968208  0.75660197     0.31000
H782        H  0.85940485  0.24380337  0.58538537     0.35000
H783        H  0.86327719  0.25059651  0.71303395     0.27800
H784        H  0.65100862  0.26649283  0.50858354     0.32000
H785        H  0.63772604  0.25607731  0.72311372     0.34800
H786        H  0.74614716  0.14332977  0.55426041     0.27500
H787        H  0.84420981  0.26228742  0.75375424     0.40300
H788        H  0.79007241  0.34724285  0.56969619     0.30400
H789        H  0.79492993  0.30452437  0.50690046     0.38000
H790        H  0.69243166  0.18654925  0.73183527     0.29900
H791        H  0.70802655  0.35020911  0.68435096     0.29900
H792        H  0.63387471  0.25271705  0.54973744     0.30200
Zr793      Zr  0.49864514  0.45196173  0.05936597     2.17500
O794        O  0.49168069  0.40018546  0.09509992    -0.52200
O795        O  0.49933119  0.46976321  0.13472835    -0.75400
O796        O  0.55017905  0.42235994  0.06632255    -0.82200
O797        O  0.40857479  0.45124928  0.02697606    -0.83900
O798        O  0.58976950  0.45493003  0.04107148    -0.79500
O799        O  0.44721985  0.42272859  0.06204020    -0.91200
O800        O  0.49472748  0.52419106  0.13840235    -0.77100
O801        O  0.53196542  0.49853182  0.06566020    -0.86600
O802        O  0.46323779  0.49740192  0.06182078    -0.86300
O803        O  0.53138634  0.45145583  0.99516073    -0.73100
O804        O  0.46817488  0.45149999  0.99362104    -0.85200
Zr805      Zr  0.50136115  0.54423744  0.93781817     2.26400
Zr806      Zr  0.56451057  0.49858873  0.00214482     2.06300
Zr807      Zr  0.43419281  0.49792734  0.99535360     2.10000
Zr808      Zr  0.49659643  0.54391889  0.06628397     1.78800
O809        O  0.39513005  0.47784025  0.94339051    -0.94000
O810        O  0.54200470  0.56860557  0.10366078    -0.41800
O811        O  0.46743988  0.54481542  0.00040482    -0.78400
O812        O  0.53058391  0.54517178  0.00467490    -0.97100
O813        O  0.53566456  0.49820925  0.93548503    -0.90400
O814        O  0.46657330  0.49857915  0.93179512    -0.93300
C815        C  0.49728882  0.49646135  0.15569086     1.00500
C816        C  0.41796112  0.42705254  0.04928633     1.13400
C817        C  0.58010502  0.42852833  0.05818592     1.04200
O818        O  0.60314927  0.52255642  0.05167151    -0.95400
O819        O  0.59134397  0.54333215  0.96751485    -0.91200
O820        O  0.55335490  0.57223293  0.93202927    -0.84300
C821        C  0.58253989  0.56751972  0.94484993     1.10800
O822        O  0.50423823  0.39403667  0.93568141    -0.97400
Zr823      Zr  0.50081151  0.45258014  0.93041969     1.88900
O824        O  0.49974845  0.52721918  0.86249755    -0.74100
O825        O  0.60683601  0.47651414  0.95640617    -0.53300
O826        O  0.54914517  0.43240370  0.89462607    -0.98000
O827        O  0.45345441  0.42525672  0.90142098    -0.55200
O828        O  0.49808949  0.47267272  0.85816115    -0.74600
C829        C  0.49826152  0.50069770  0.84121146     0.97800
O830        O  0.50866702  0.59507796  0.89985979    -0.63400
O831        O  0.39201246  0.52030227  0.04120277    -0.58200
O832        O  0.45114029  0.57574557  0.93611998    -0.94900
O833        O  0.41043949  0.54440792  0.96132210    -0.93300
O834        O  0.44719877  0.56816334  0.09406286    -0.93700
O835        O  0.49657971  0.60245723  0.06109342    -0.92400
C836        C  0.42115111  0.57055010  0.94466271     1.16600
H837        H  0.44873771  0.49586993  0.08602800     0.32600
H838        H  0.54300955  0.56464660  0.00824325     0.43400
H839        H  0.45283857  0.49995531  0.90684552     0.36900
H840        H  0.54429118  0.43228027  0.99198643     0.33400
H841        H  0.53224600  0.57992247  0.12848518     0.25200
H842        H  0.62694539  0.47896016  0.97330072     0.31100
H843        H  0.54200158  0.42607803  0.86548132     0.37000
H844        H  0.44053078  0.55435252  0.11838975     0.31500
H845        H  0.37159755  0.51122916  0.02991862     0.30400
H846        H  0.37386684  0.48449752  0.95495517     0.32100
H847        H  0.46048623  0.41664739  0.87328296     0.31000
H848        H  0.50013673  0.60695311  0.03023326     0.35000
H849        H  0.49500055  0.59350681  0.87392964     0.27800
H850        H  0.50454574  0.40169452  0.12178281     0.32000
H851        H  0.50594511  0.38597341  0.90583585     0.34800
H852        H  0.39483417  0.51005341  0.06959045     0.27500
H853        H  0.49850398  0.61193314  0.91791296     0.40300
H854        H  0.59545208  0.54491534  0.05588676     0.30400
H855        H  0.55389442  0.55034175  0.11658292     0.38000
H856        H  0.43807625  0.44265628  0.89418892     0.29900
H857        H  0.60277319  0.45301723  0.95579287     0.29900
H858        H  0.50291439  0.38405826  0.07700707     0.30200
Zr859      Zr  0.50209950  0.45672332  0.56073166     2.17500
O860        O  0.49691757  0.40552532  0.59860038    -0.52200
O861        O  0.50046014  0.47502624  0.63545393    -0.75400
O862        O  0.55422070  0.42961523  0.57126435    -0.82200
O863        O  0.41227908  0.45462456  0.53070718    -0.83900
O864        O  0.59349396  0.45894903  0.53890693    -0.79500
O865        O  0.45228912  0.42546169  0.56195830    -0.91200
O866        O  0.50230433  0.52959073  0.63790021    -0.77100
O867        O  0.53470696  0.50385113  0.56553896    -0.86600
O868        O  0.46558323  0.50120369  0.56178981    -0.86300
O869        O  0.53502564  0.45497940  0.49702912    -0.73100
O870        O  0.47210369  0.45439027  0.49482079    -0.85200
Zr871      Zr  0.50349117  0.54687391  0.43626034     2.26400
Zr872      Zr  0.56722415  0.50279768  0.50182130     2.06300
Zr873      Zr  0.43710497  0.50008414  0.49489018     2.10000
Zr874      Zr  0.49802225  0.54825699  0.56515064     1.78800
O875        O  0.39967749  0.47485153  0.44484660    -0.94000
O876        O  0.54002692  0.58189690  0.59669324    -0.41800
O877        O  0.46935667  0.54771107  0.49874119    -0.78400
O878        O  0.53216574  0.54873185  0.50374065    -0.97100
O879        O  0.53872342  0.50141598  0.43499695    -0.90400
O880        O  0.46986579  0.50012499  0.43168251    -0.93300
C881        C  0.50187906  0.50193899  0.65583848     1.00500
C882        C  0.42265506  0.42998745  0.55135529     1.13400
C883        C  0.58388766  0.43462640  0.56073502     1.04200
O884        O  0.60845063  0.52412051  0.54979038    -0.95400
O885        O  0.59296212  0.54894676  0.46981513    -0.91200
O886        O  0.55482480  0.57733104  0.43362166    -0.84300
C887        C  0.58376190  0.57353848  0.44819227     1.10800
O888        O  0.50957340  0.39626014  0.43602281    -0.97400
Zr889      Zr  0.50510920  0.45477003  0.43191846     1.88900
O890        O  0.50116128  0.52767659  0.36137861    -0.74100
O891        O  0.60714152  0.48142383  0.45183746    -0.53300
O892        O  0.55552272  0.43555314  0.40050839    -0.98000
O893        O  0.45967345  0.42513451  0.40152156    -0.55200
O894        O  0.50326265  0.47305100  0.35911757    -0.74600
C895        C  0.50155752  0.50058655  0.34111946     0.97800
O896        O  0.50988593  0.59540721  0.39316854    -0.63400
O897        O  0.39416991  0.52447632  0.53754162    -0.58200
O898        O  0.45252787  0.57782499  0.43560078    -0.94900
O899        O  0.41222061  0.54473491  0.45763356    -0.93300
O900        O  0.44711661  0.56539767  0.59701372    -0.93700
O901        O  0.49023055  0.60619147  0.55854685    -0.92400
C902        C  0.42241658  0.57164253  0.44252950     1.16600
H903        H  0.45099029  0.49974623  0.58589515     0.32600
H904        H  0.54385310  0.56855652  0.50791480     0.43400
H905        H  0.45610567  0.50049571  0.40664217     0.36900
H906        H  0.54796843  0.43572509  0.49492109     0.33400
H907        H  0.53096644  0.58930003  0.62444104     0.25200
H908        H  0.62820312  0.48572517  0.46575770     0.31100
H909        H  0.55069875  0.43176711  0.36979152     0.37000
H910        H  0.45317335  0.57484618  0.62507635     0.31500
H911        H  0.37402444  0.51450512  0.52674311     0.30400
H912        H  0.37823025  0.47694392  0.45866042     0.32100
H913        H  0.44926495  0.44033999  0.38138152     0.31000
H914        H  0.49193825  0.61047502  0.52736151     0.35000
H915        H  0.49563753  0.59229994  0.36801599     0.27800
H916        H  0.51088051  0.40738696  0.62427270     0.32000
H917        H  0.51235248  0.38874618  0.40605185     0.34800
H918        H  0.39681319  0.51568121  0.56682311     0.27500
H919        H  0.49986162  0.61302068  0.40996629     0.40300
H920        H  0.59882944  0.52273200  0.57883542     0.30400
H921        H  0.55739057  0.56666746  0.60465634     0.38000
H922        H  0.44406098  0.42301223  0.42545468     0.29900
H923        H  0.60462024  0.45773657  0.45335803     0.29900
H924        H  0.50757165  0.38923075  0.58014300     0.30200
Zr925      Zr  0.00074446  0.54729100  0.31350993     2.17500
O926        O  0.00704129  0.59951930  0.34858342    -0.52200
O927        O  0.00192496  0.53108677  0.38938604    -0.75400
O928        O  0.94910520  0.57643886  0.32057466    -0.82200
O929        O  0.08986127  0.54954034  0.27620731    -0.83900
O930        O  0.90936306  0.54580420  0.29101623    -0.79500
O931        O  0.05158324  0.57727614  0.31366319    -0.91200
O932        O  0.99904621  0.47659609  0.39363336    -0.77100
O933        O  0.96723941  0.50090167  0.32035063    -0.86600
O934        O  0.03633626  0.50207657  0.31668267    -0.86300
O935        O  0.96806451  0.54725522  0.24937276    -0.73100
O936        O  0.03113209  0.54673915  0.24771092    -0.85200
Zr937      Zr  0.99743313  0.45381678  0.19333206     2.26400
Zr938      Zr  0.93481115  0.50027877  0.25662139     2.06300
Zr939      Zr  0.06521695  0.50054152  0.25002434     2.10000
Zr940      Zr  0.00287915  0.45575171  0.32203074     1.78800
O941        O  0.10622537  0.51940884  0.19991971    -0.94000
O942        O  0.95889987  0.42603250  0.35568124    -0.41800
O943        O  0.03158712  0.45404291  0.25569452    -0.78400
O944        O  0.96874180  0.45367776  0.26071295    -0.97100
O945        O  0.96355979  0.50000250  0.19004034    -0.90400
O946        O  0.03256577  0.49923554  0.18663708    -0.93300
C947        C  0.00008903  0.50456788  0.41062478     1.00500
C948        C  0.08023925  0.57369755  0.29844810     1.13400
C949        C  0.91939607  0.57115840  0.31035609     1.04200
O950        O  0.89357678  0.48117404  0.30624212    -0.95400
O951        O  0.90819431  0.45362342  0.22682002    -0.91200
O952        O  0.94585631  0.42431152  0.19101386    -0.84300
C953        C  0.91699804  0.42870411  0.20543003     1.10800
O954        O  0.00090281  0.60385779  0.19289687    -0.97400
Zr955      Zr  0.99865836  0.54547786  0.18477672     1.88900
O956        O  0.99718982  0.47076138  0.11768597    -0.74100
O957        O  0.89577697  0.51946910  0.20408721    -0.53300
O958        O  0.95167959  0.57085283  0.15206304    -0.98000
O959        O  0.04583047  0.56827258  0.14896228    -0.55200
O960        O  0.99544518  0.52522642  0.11299497    -0.74600
C961        C  0.99596087  0.49718674  0.09614648     0.97800
O962        O  0.99416919  0.40407435  0.15162258    -0.63400
O963        O  0.10469333  0.47994589  0.30115398    -0.58200
O964        O  0.04729632  0.42223842  0.19427137    -0.94900
O965        O  0.08908763  0.45391788  0.21594059    -0.93300
O966        O  0.05267262  0.43628319  0.35463966    -0.93700
O967        O  0.00896360  0.39747708  0.31837510    -0.92400
C968        C  0.07742564  0.42762405  0.20095321     1.16600
H969        H  0.05088528  0.50401561  0.34077905     0.32600
H970        H  0.95674717  0.43411782  0.26554739     0.43400
H971        H  0.04603543  0.49755090  0.16138184     0.36900
H972        H  0.95549063  0.56659706  0.24576161     0.33400
H973        H  0.96739971  0.41939252  0.38402540     0.25200
H974        H  0.87447613  0.51370764  0.21635731     0.31100
H975        H  0.93886491  0.55279386  0.14016295     0.37000
H976        H  0.05796644  0.45197772  0.37752818     0.31500
H977        H  0.12472328  0.47708338  0.28419699     0.30400
H978        H  0.12682447  0.51088479  0.21134141     0.32100
H979        H  0.05372292  0.55118830  0.12939870     0.31000
H980        H  0.00636269  0.39225213  0.28754178     0.35000
H981        H  0.01144108  0.40565290  0.12972054     0.27800
H982        H  0.99294457  0.59875842  0.37425285     0.32000
H983        H  0.00088827  0.61255567  0.16331885     0.34800
H984        H  0.10949888  0.49823015  0.32055673     0.27500
H985        H  0.00123197  0.38660019  0.17108136     0.40300
H986        H  0.90180746  0.48689657  0.33509337     0.30400
H987        H  0.94239300  0.44255066  0.36231194     0.38000
H988        H  0.06248100  0.56963268  0.17168684     0.29900
H989        H  0.89672965  0.54325154  0.20610634     0.29900
H990        H  0.99680064  0.61543947  0.32924033     0.30200
Zr991      Zr  0.99715321  0.54487391  0.81551222     2.17500
O992        O  0.00003372  0.59453482  0.85744518    -0.52200
O993        O  0.99463570  0.52590958  0.89022348    -0.75400
O994        O  0.94551718  0.57416536  0.81839702    -0.82200
O995        O  0.08888133  0.54383889  0.79395239    -0.83900
O996        O  0.90779820  0.54718221  0.77918677    -0.79500
O997        O  0.04769161  0.57569795  0.81742216    -0.91200
O998        O  0.99290473  0.47132298  0.89204147    -0.77100
O999        O  0.96192269  0.49953568  0.81476599    -0.86600
O1000       O  0.03067478  0.49833069  0.82155573    -0.86300
O1001       O  0.96998125  0.54770800  0.74715743    -0.73100
O1002       O  0.03233654  0.54488249  0.75421541    -0.85200
Zr1003     Zr  0.00083872  0.45424858  0.69028023     2.26400
Zr1004     Zr  0.93497784  0.50171276  0.74677379     2.06300
Zr1005     Zr  0.06460173  0.49755828  0.75940576     2.10000
Zr1006     Zr  0.99566492  0.45303545  0.81931537     1.78800
O1007       O  0.10845850  0.51747654  0.71445346    -0.94000
O1008       O  0.94728947  0.42825702  0.84927446    -0.41800
O1009       O  0.02947874  0.45202232  0.75742691    -0.78400
O1010       O  0.96695620  0.45374396  0.75342224    -0.97100
O1011       O  0.96888651  0.50171213  0.68444169    -0.90400
O1012       O  0.03753038  0.49872309  0.69137511    -0.93300
C1013       C  0.99311092  0.49884824  0.91030315     1.00500
C1014       C  0.07775827  0.57002233  0.81002738     1.13400
C1015       C  0.91692880  0.57072385  0.80287049     1.04200
O1016       O  0.88902283  0.48356413  0.78919397    -0.95400
O1017       O  0.90915837  0.45626889  0.71306818    -0.91200
O1018       O  0.94833627  0.42649257  0.68102191    -0.84300
C1019       C  0.91865404  0.43154348  0.69192431     1.10800
O1020       O  0.00551524  0.60474436  0.69297604    -0.97400
Zr1021     Zr  0.00540581  0.54615891  0.68671819     1.88900
O1022       O  0.00329408  0.47378626  0.61573689    -0.74100
O1023       O  0.90201729  0.52357680  0.68905305    -0.53300
O1024       O  0.96029664  0.57017898  0.64806566    -0.98000
O1025       O  0.05617361  0.57035205  0.66335668    -0.55200
O1026       O  0.01037545  0.52795920  0.61389040    -0.74600
C1027       C  0.00754743  0.50055577  0.59563249     0.97800
O1028       O  0.00501951  0.40498139  0.64778016    -0.63400
O1029       O  0.10240127  0.47525598  0.81147661    -0.58200
O1030       O  0.05090547  0.42229047  0.69152387    -0.94900
O1031       O  0.08839712  0.44907947  0.73093847    -0.93300
O1032       O  0.04261348  0.42864264  0.85327196    -0.93700
O1033       O  0.99519020  0.39454931  0.81291492    -0.92400
C1034       C  0.07936730  0.42512997  0.70785542     1.16600
H1035       H  0.04336409  0.49884521  0.84754248     0.32600
H1036       H  0.95411879  0.43450257  0.75614674     0.43400
H1037       H  0.05283522  0.49714375  0.66801044     0.36900
H1038       H  0.95836626  0.56760653  0.74324250     0.33400
H1039       H  0.95460709  0.41769739  0.87604028     0.25200
H1040       H  0.87960354  0.52220097  0.69999619     0.31100
H1041       H  0.96953206  0.57772466  0.62052703     0.37000
H1042       H  0.03448127  0.42021249  0.88097116     0.31500
H1043       H  0.12388923  0.48243518  0.80129727     0.30400
H1044       H  0.11051665  0.50169711  0.69075869     0.32100
H1045       H  0.05166246  0.57911717  0.63444490     0.31000
H1046       H  0.01016152  0.38978501  0.78891815     0.35000
H1047       H  0.99470752  0.38788104  0.66515822     0.27800
H1048       H  0.98295720  0.59278512  0.87960410     0.32000
H1049       H  0.00706297  0.61306626  0.66326840     0.34800
H1050       H  0.09885443  0.48756435  0.83829961     0.27500
H1051       H  0.99035797  0.40811446  0.62301858     0.40300
H1052       H  0.89585027  0.48620574  0.81944626     0.30400
H1053       H  0.93390159  0.44656871  0.85920462     0.38000
H1054       H  0.07093078  0.55204183  0.65800126     0.29900
H1055       H  0.90689839  0.54691972  0.68892764     0.29900
H1056       H  0.99267795  0.61191971  0.83802159     0.30200
C1057       C  0.00008188  0.50550296  0.45805039    -0.07000
C1058       C  0.02434106  0.52290689  0.47919561    -0.18100
C1059       C  0.02859789  0.52032054  0.52370512     0.10200
C1060       C  0.00765070  0.50043161  0.54808964    -0.06900
C1061       C  0.98343424  0.48305434  0.52682696    -0.18100
C1062       C  0.97913295  0.48572381  0.48244356     0.10300
S1063       S  0.06231833  0.54160572  0.54695196    -0.33100
S1064       S  0.94539737  0.46448121  0.45919691    -0.33100
H1065       H  0.93937150  0.48731963  0.42684244     0.28300
H1066       H  0.06825693  0.51898003  0.57958896     0.28300
H1067       H  0.04103955  0.53745143  0.46067035     0.18900
H1068       H  0.96672418  0.46841701  0.54519426     0.18900
C1069       C  0.99253781  0.49854758  0.95780964    -0.07000
C1070       C  0.01037699  0.47454354  0.97911301    -0.18100
C1071       C  0.01213828  0.47340026  0.02392366     0.10200
C1072       C  0.99476460  0.49610351  0.04860684    -0.06900
C1073       C  0.97643485  0.51973010  0.02724150    -0.18100
C1074       C  0.97498258  0.52109202  0.98242448     0.10300
S1075       S  0.03902527  0.44414072  0.04720395    -0.33100
S1076       S  0.94930219  0.55131739  0.95888889    -0.33100
H1077       H  0.93788347  0.53130333  0.92573022     0.28300
H1078       H  0.05187163  0.46585800  0.07736649     0.28300
H1079       H  0.02425054  0.45725147  0.96063055     0.18900
H1080       H  0.96271297  0.53716816  0.04567296     0.18900
C1081       C  0.50219866  0.50131855  0.70330255    -0.07000
C1082       C  0.48095093  0.48040650  0.72455983    -0.18100
C1083       C  0.47782690  0.48107675  0.76926346     0.10200
C1084       C  0.49729124  0.50220117  0.79383219    -0.06900
C1085       C  0.51834316  0.52329796  0.77261075    -0.18100
C1086       C  0.52120789  0.52292929  0.72786099     0.10300
S1087       S  0.44698270  0.45599890  0.79272478    -0.33100
S1088       S  0.55082288  0.54947349  0.70444842    -0.33100
H1089       H  0.56029636  0.52772317  0.67213687     0.28300
H1090       H  0.43841560  0.47830269  0.82484266     0.28300
H1091       H  0.46560353  0.46440298  0.70609610     0.18900
H1092       H  0.53365173  0.53931409  0.79110856     0.18900
C1093       C  0.49812090  0.49609636  0.20312626    -0.07000
C1094       C  0.47669958  0.51636347  0.22555357    -0.18100
C1095       C  0.47716374  0.51839636  0.27041173     0.10200
C1096       C  0.49998020  0.50025530  0.29372970    -0.06900
C1097       C  0.52122554  0.47980860  0.27134196    -0.18100
C1098       C  0.52097939  0.47801206  0.22647891     0.10300
S1099       S  0.44712151  0.54333925  0.29594740    -0.33100
S1100       S  0.55192786  0.45409963  0.20107625    -0.33100
H1101       H  0.55758558  0.47562414  0.16702389     0.28300
H1102       H  0.44130361  0.52208655  0.33022598     0.28300
H1103       H  0.45911090  0.53045533  0.20794507     0.18900
H1104       H  0.53892925  0.46585626  0.28894593     0.18900
C1105       C  0.84788193  0.35522227  0.68527584    -0.07000
C1106       C  0.83830095  0.38776368  0.68505745    -0.18100
C1107       C  0.86069416  0.41285340  0.68313688     0.10200
C1108       C  0.89415348  0.40594724  0.68425719    -0.06900
C1109       C  0.90396990  0.37351052  0.68434557    -0.18100
C1110       C  0.88134951  0.34813715  0.68398380     0.10300
S1111       S  0.84465516  0.45302795  0.67707313    -0.33100
S1112       S  0.89582206  0.30728063  0.67892839    -0.33100
H1113       H  0.92896152  0.31425078  0.68230753     0.28300
H1114       H  0.86966778  0.46363569  0.64990283     0.28300
H1115       H  0.81285138  0.39389234  0.68480057     0.18900
H1116       H  0.92951690  0.36802686  0.68513267     0.18900
C1117       C  0.65364256  0.35815378  0.57339810    -0.07000
C1118       C  0.66368056  0.39053233  0.57308388    -0.18100
C1119       C  0.64153917  0.41588380  0.57279564     0.10200
C1120       C  0.60810069  0.40924281  0.57030221    -0.06900
C1121       C  0.59786923  0.37696743  0.57155430    -0.18100
C1122       C  0.62006731  0.35143685  0.57399424     0.10300
S1123       S  0.65772257  0.45604689  0.57787153    -0.33100
S1124       S  0.60474285  0.31098364  0.58065366    -0.33100
H1125       H  0.57166643  0.31834590  0.57760120     0.28300
H1126       H  0.63217011  0.46753321  0.60350055     0.28300
H1127       H  0.68919241  0.39632794  0.57424512     0.18900
H1128       H  0.57229657  0.37168526  0.57007801     0.18900
C1129       C  0.75344816  0.24489085  0.83395010    -0.07000
C1130       C  0.77146334  0.26856357  0.85532780    -0.18100
C1131       C  0.76888619  0.27276972  0.89983620     0.10200
C1132       C  0.74869992  0.25210108  0.92417476    -0.06900
C1133       C  0.73083371  0.22831868  0.90281319    -0.18100
C1134       C  0.73315356  0.22431691  0.85828817     0.10300
S1135       S  0.79030337  0.30635782  0.92309803    -0.33100
S1136       S  0.71048347  0.19164763  0.83481982    -0.33100
H1137       H  0.73288667  0.18526042  0.80192435     0.28300
H1138       H  0.76736478  0.31256862  0.95542517     0.28300
H1139       H  0.78630623  0.28507719  0.83695713     0.18900
H1140       H  0.71585801  0.21189304  0.92113465     0.18900
C1141       C  0.74970167  0.25215664  0.33397091    -0.07000
C1142       C  0.76585561  0.22745560  0.35571360    -0.18100
C1143       C  0.76293775  0.22398868  0.40022969     0.10200
C1144       C  0.74411188  0.24623223  0.42408599    -0.06900
C1145       C  0.72786708  0.27088334  0.40227280    -0.18100
C1146       C  0.73075105  0.27429614  0.35771078     0.10300
S1147       S  0.78267804  0.18977825  0.42439898    -0.33100
S1148       S  0.71091409  0.30834370  0.33329770    -0.33100
H1149       H  0.73363945  0.31252543  0.30015170     0.28300
H1150       H  0.75907254  0.18494740  0.45628277     0.28300
H1151       H  0.77971054  0.20988672  0.33767833     0.18900
H1152       H  0.71403004  0.28849142  0.42025574     0.18900
C1153       C  0.89207557  0.40330049  0.19948402    -0.07000
C1154       C  0.85953187  0.41296984  0.19917724    -0.18100
C1155       C  0.83438114  0.39063782  0.19784892     0.10200
C1156       C  0.84147878  0.35739743  0.19501337    -0.06900
C1157       C  0.87393124  0.34751257  0.19604567    -0.18100
C1158       C  0.89927858  0.36993241  0.19869064     0.10300
S1159       S  0.79386176  0.40635970  0.20161140    -0.33100
S1160       S  0.94021404  0.35519853  0.20319713    -0.33100
H1161       H  0.93322677  0.32216810  0.19918276     0.28300
H1162       H  0.78190998  0.38048539  0.22606529     0.28300
H1163       H  0.85346254  0.43834211  0.20076136     0.18900
H1164       H  0.87947287  0.32208001  0.19392257     0.18900
C1165       C  0.60529122  0.40295856  0.06403558    -0.07000
C1166       C  0.63423582  0.40602302  0.04026074    -0.18100
C1167       C  0.65786208  0.38196959  0.03999912     0.10200
C1168       C  0.65288575  0.35359894  0.06369490    -0.06900
C1169       C  0.62427504  0.35011856  0.08743097    -0.18100
C1170       C  0.60085858  0.37456347  0.08866239     0.10300
S1171       S  0.69376196  0.38881305  0.00841814    -0.33100
S1172       S  0.56746106  0.36863283  0.12476840    -0.33100
H1173       H  0.56719138  0.40074365  0.13909115     0.28300
H1174       H  0.70008802  0.35616682  0.99972469     0.28300
H1175       H  0.63852533  0.42716552  0.02075912     0.18900
H1176       H  0.62097214  0.32887153  0.10716771     0.18900
C1177       C  0.84598083  0.64534509  0.81445990    -0.07000
C1178       C  0.85049317  0.62321211  0.84818901    -0.18100
C1179       C  0.87366552  0.59883503  0.84577553     0.10200
C1180       C  0.89350605  0.59680124  0.80919412    -0.06900
C1181       C  0.88961200  0.61916293  0.77578870    -0.18100
C1182       C  0.86591547  0.64319688  0.77779077     0.10300
S1183       S  0.87636139  0.57120629  0.89029679    -0.33100
S1184       S  0.86133445  0.66903496  0.73176126    -0.33100
H1185       H  0.82744659  0.67073194  0.73417574     0.28300
H1186       H  0.88861674  0.54479397  0.86727538     0.28300
H1187       H  0.83563608  0.62476212  0.87678891     0.18900
H1188       H  0.90458958  0.61727645  0.74732520     0.18900
C1189       C  0.65266378  0.64373568  0.92896910    -0.07000
C1190       C  0.66279952  0.61150701  0.93242685    -0.18100
C1191       C  0.64063437  0.58604645  0.93481784     0.10200
C1192       C  0.60713184  0.59280975  0.93605893    -0.06900
C1193       C  0.59693548  0.62495197  0.93184443    -0.18100
C1194       C  0.61911164  0.65019387  0.92716706     0.10300
S1195       S  0.65575892  0.54515576  0.93383072    -0.33100
S1196       S  0.60272383  0.68948756  0.91616885    -0.33100
H1197       H  0.62453082  0.69611996  0.88265575     0.28300
H1198       H  0.68821727  0.55261211  0.92489566     0.28300
H1199       H  0.68838838  0.60615000  0.93261765     0.18900
H1200       H  0.57137567  0.63057176  0.93199928     0.18900
C1201       C  0.75364736  0.75123913  0.57672188    -0.07000
C1202       C  0.77530907  0.77136180  0.59893265    -0.18100
C1203       C  0.77710463  0.77112424  0.64396882     0.10200
C1204       C  0.75711870  0.74990232  0.66735895    -0.06900
C1205       C  0.73564178  0.72967286  0.64501747    -0.18100
C1206       C  0.73393174  0.72984291  0.60020975     0.10300
S1207       S  0.80319150  0.79951755  0.67111214    -0.33100
S1208       S  0.70691748  0.70142199  0.57504573    -0.33100
H1209       H  0.72781112  0.69389798  0.54082216     0.28300
H1210       H  0.81593781  0.81414521  0.63407507     0.28300
H1211       H  0.79037304  0.78780337  0.58083584     0.18900
H1212       H  0.72011421  0.71335780  0.66269600     0.18900
C1213       C  0.74564331  0.74793442  0.16720136    -0.07000
C1214       C  0.76050302  0.77358308  0.14571375    -0.18100
C1215       C  0.75778409  0.77697596  0.10108703     0.10200
C1216       C  0.74054009  0.75372345  0.07710062    -0.06900
C1217       C  0.72524703  0.72828956  0.09858429    -0.18100
C1218       C  0.72753758  0.72517230  0.14340477     0.10300
S1219       S  0.77501665  0.81196183  0.07521030    -0.33100
S1220       S  0.70887382  0.69106386  0.16954664    -0.33100
H1221       H  0.69263297  0.67910053  0.13322202     0.28300
H1222       H  0.78843032  0.82599762  0.11224943     0.28300
H1223       H  0.77340263  0.79153890  0.16422392     0.18900
H1224       H  0.71258924  0.71021346  0.07998821     0.18900
C1225       C  0.84687524  0.64553833  0.31134613    -0.07000
C1226       C  0.83939271  0.61372978  0.32396828    -0.18100
C1227       C  0.86302375  0.58991866  0.32753384     0.10200
C1228       C  0.89529917  0.59700829  0.31673278    -0.06900
C1229       C  0.90318810  0.62845295  0.30397297    -0.18100
C1230       C  0.87954210  0.65257435  0.30081810     0.10300
S1231       S  0.85054961  0.55114811  0.34776303    -0.33100
S1232       S  0.89305001  0.69128498  0.28242946    -0.33100
H1233       H  0.87098004  0.69146361  0.24809655     0.28300
H1234       H  0.87992643  0.54436120  0.36857509     0.28300
H1235       H  0.81490287  0.60726283  0.33268915     0.18900
H1236       H  0.92777323  0.63395310  0.29444726     0.18900
C1237       C  0.65859639  0.64599467  0.44286652    -0.07000
C1238       C  0.62600414  0.65550281  0.44412059    -0.18100
C1239       C  0.60082798  0.63269440  0.44480816     0.10200
C1240       C  0.60832767  0.59941809  0.44290880    -0.06900
C1241       C  0.64096553  0.59012784  0.44234377    -0.18100
C1242       C  0.66590332  0.61269779  0.44353301     0.10300
S1243       S  0.55968722  0.64660511  0.45056063    -0.33100
S1244       S  0.70646297  0.59707261  0.44770474    -0.33100
H1245       H  0.71780351  0.62229489  0.47390525     0.28300
H1246       H  0.56625507  0.67981733  0.44855557     0.28300
H1247       H  0.62022448  0.68092523  0.44370916     0.18900
H1248       H  0.64726019  0.56478213  0.44234850     0.18900
C1249       C  0.60203996  0.90006744  0.44812684    -0.07000
C1250       C  0.61167449  0.89440525  0.40569024    -0.18100
C1251       C  0.63525621  0.87134866  0.39598964     0.10200
C1252       C  0.65020360  0.85380981  0.42945369    -0.06900
C1253       C  0.63989479  0.85887831  0.47186531    -0.18100
C1254       C  0.61595729  0.88168020  0.48151183     0.10300
S1255       S  0.64425989  0.86449108  0.34014586    -0.33100
S1256       S  0.60408484  0.88608517  0.53691337    -0.33100
H1257       H  0.57172023  0.89403688  0.52833832     0.28300
H1258       H  0.64737296  0.83090727  0.34449871     0.28300
H1259       H  0.60082016  0.90814950  0.37989638     0.18900
H1260       H  0.65087858  0.84530823  0.49771754     0.18900
C1261       C  0.59985012  0.10144165  0.55795585    -0.07000
C1262       C  0.60663106  0.11104291  0.60011356    -0.18100
C1263       C  0.62962325  0.13494620  0.60852586     0.10200
C1264       C  0.64619287  0.14974717  0.57408538    -0.06900
C1265       C  0.63866607  0.14087926  0.53185843    -0.18100
C1266       C  0.61573409  0.11689686  0.52344086     0.10300
S1267       S  0.63681825  0.14548837  0.66385154    -0.33100
S1268       S  0.60778424  0.10704954  0.46805897    -0.33100
H1269       H  0.57472286  0.10073608  0.47405581     0.28300
H1270       H  0.64353719  0.17813691  0.65585935     0.28300
H1271       H  0.59439870  0.09940333  0.62668522     0.18900
H1272       H  0.65129194  0.15214745  0.50533019     0.18900
C1273       C  0.49890885  0.99771202  0.79658997    -0.07000
C1274       C  0.47415717  0.98132033  0.77502695    -0.18100
C1275       C  0.47047921  0.98407649  0.73048211     0.10200
C1276       C  0.49245516  0.00309059  0.70654479    -0.06900
C1277       C  0.51723670  0.01939482  0.72812534    -0.18100
C1278       C  0.52094754  0.01661115  0.77260374     0.10300
S1279       S  0.43644579  0.96383919  0.70635138    -0.33100
S1280       S  0.55521433  0.03663372  0.79649359    -0.33100
H1281       H  0.55979515  0.01409616  0.82961433     0.28300
H1282       H  0.43187149  0.98649003  0.67334841     0.28300
H1283       H  0.45677503  0.96733842  0.79319829     0.18900
H1284       H  0.53472681  0.03326169  0.70997126     0.18900
C1285       C  0.49424099  0.00193953  0.20705042    -0.07000
C1286       C  0.51668975  0.02121799  0.22876242    -0.18100
C1287       C  0.52038072  0.01918346  0.27331372     0.10200
C1288       C  0.50038309  0.99820495  0.29743833    -0.06900
C1289       C  0.47782295  0.97898266  0.27583000    -0.18100
C1290       C  0.47435371  0.98077071  0.23115966     0.10300
S1291       S  0.55246312  0.04260322  0.29700503    -0.33100
S1292       S  0.44312105  0.95634953  0.20732333    -0.33100
H1293       H  0.43577707  0.97809965  0.17415379     0.28300
H1294       H  0.56025163  0.01982551  0.32877283     0.28300
H1295       H  0.53264885  0.03683113  0.21064763     0.18900
H1296       H  0.46196625  0.96329836  0.29400278     0.18900
C1297       C  0.60006427  0.90040210  0.94004154    -0.07000
C1298       C  0.61819202  0.88801582  0.97437196    -0.18100
C1299       C  0.64177029  0.86439262  0.96785959     0.10200
C1300       C  0.64773744  0.85295007  0.92594523    -0.06900
C1301       C  0.62938036  0.86491675  0.89160648    -0.18100
C1302       C  0.60552310  0.88838740  0.89820028     0.10300
S1303       S  0.66359091  0.85021342  0.01431234    -0.33100
S1304       S  0.58377674  0.90274437  0.85187405    -0.33100
H1305       H  0.58187830  0.93498970  0.86555331     0.28300
H1306       H  0.69290874  0.84367854  0.99328453     0.28300
H1307       H  0.61401234  0.89694272  0.00662826     0.18900
H1308       H  0.63392051  0.85614483  0.85936940     0.18900
C1309       C  0.60548886  0.09542368  0.06148756    -0.07000
C1310       C  0.59552791  0.12740661  0.06839531    -0.18100
C1311       C  0.61799227  0.15221182  0.07489041     0.10200
C1312       C  0.65142725  0.14533474  0.07280039    -0.06900
C1313       C  0.66131774  0.11344842  0.06590105    -0.18100
C1314       C  0.63903655  0.08851476  0.06128007     0.10300
S1315       S  0.60230885  0.19150756  0.08798352    -0.33100
S1316       S  0.65544480  0.04837173  0.05780956    -0.33100
H1317       H  0.63277299  0.03531036  0.08662058     0.28300
H1318       H  0.62542423  0.19798930  0.11993534     0.28300
H1319       H  0.57000818  0.13317533  0.06907642     0.18900
H1320       H  0.68685426  0.10767190  0.06511845     0.18900
C1321       C  0.15155519  0.64189169  0.82356576    -0.07000
C1322       C  0.14927845  0.61640139  0.85330165    -0.18100
C1323       C  0.12467507  0.59336385  0.85071417     0.10200
C1324       C  0.10129942  0.59581902  0.81810019    -0.06900
C1325       C  0.10332391  0.62105075  0.78836548    -0.18100
C1326       C  0.12854840  0.64353453  0.79000268     0.10300
S1327       S  0.12452025  0.56123755  0.88968124    -0.33100
S1328       S  0.13150458  0.67154705  0.74605178    -0.33100
H1329       H  0.16541070  0.67011088  0.74331585     0.28300
H1330       H  0.09092776  0.55621698  0.88948769     0.28300
H1331       H  0.16660941  0.61450638  0.87922383     0.18900
H1332       H  0.08617084  0.62212050  0.76212407     0.18900
C1333       C  0.35065682  0.64660732  0.93388379    -0.07000
C1334       C  0.37758324  0.64669957  0.90656851    -0.18100
C1335       C  0.40047744  0.62183207  0.90787021     0.10200
C1336       C  0.39713415  0.59678933  0.93843887    -0.06900
C1337       C  0.37015362  0.59725919  0.96605446    -0.18100
C1338       C  0.34702690  0.62164070  0.96402049     0.10300
S1339       S  0.43150530  0.62236677  0.86738298    -0.33100
S1340       S  0.31343953  0.61946830  0.00085360    -0.33100
H1341       H  0.30741755  0.65272674  0.00235193     0.28300
H1342       H  0.43079592  0.58889461  0.86027399     0.28300
H1343       H  0.37983654  0.66536429  0.88243849     0.18900
H1344       H  0.36710552  0.57864409  0.99007637     0.18900
C1345       C  0.34515060  0.85551692  0.93310123    -0.07000
C1346       C  0.35327394  0.86593583  0.97433626    -0.18100
C1347       C  0.37644873  0.89002455  0.98038756     0.10200
C1348       C  0.39187261  0.90431971  0.94452808    -0.06900
C1349       C  0.38433099  0.89326828  0.90324420    -0.18100
C1350       C  0.36096703  0.86911907  0.89714483     0.10300
S1351       S  0.38652191  0.90047205  0.03478001    -0.33100
S1352       S  0.35182980  0.85534866  0.84345176    -0.33100
H1353       H  0.37549962  0.87370364  0.82220634     0.28300
H1354       H  0.41955415  0.89435396  0.02839035     0.28300
H1355       H  0.34144649  0.85530044  0.00195218     0.18900
H1356       H  0.39633676  0.90398889  0.87586716     0.18900
C1357       C  0.24944498  0.74626701  0.58110467    -0.07000
C1358       C  0.22497362  0.76344994  0.60269605    -0.18100
C1359       C  0.22205130  0.76280326  0.64758699     0.10200
C1360       C  0.24414794  0.74446471  0.67184608    -0.06900
C1361       C  0.26837285  0.72694208  0.65017056    -0.18100
C1362       C  0.27100315  0.72728343  0.60536987     0.10300
S1363       S  0.19131051  0.78705304  0.67326918    -0.33100
S1364       S  0.30140302  0.70190191  0.58131582    -0.33100
H1365       H  0.28152902  0.69133730  0.54750583     0.28300
H1366       H  0.17852732  0.80090112  0.63576653     0.28300
H1367       H  0.20828220  0.77790595  0.58418605     0.18900
H1368       H  0.28532651  0.71249635  0.66836019     0.18900
C1369       C  0.25269425  0.75156017  0.17170666    -0.07000
C1370       C  0.27485128  0.73165126  0.15007241    -0.18100
C1371       C  0.27677523  0.73127509  0.10532074     0.10200
C1372       C  0.25668397  0.75190181  0.08128458    -0.06900
C1373       C  0.23512380  0.77248290  0.10296638    -0.18100
C1374       C  0.23298139  0.77265803  0.14788336     0.10300
S1375       S  0.30379184  0.70251987  0.08099304    -0.33100
S1376       S  0.20652361  0.80113604  0.17430114    -0.33100
H1377       H  0.19242959  0.81398838  0.13699199     0.28300
H1378       H  0.28159984  0.69275438  0.04939225     0.28300
H1379       H  0.29019286  0.71548300  0.16821580     0.18900
H1380       H  0.21998490  0.78858115  0.08448701     0.18900
C1381       C  0.10393174  0.59928739  0.30623806    -0.07000
C1382       C  0.11342781  0.61867344  0.27161130    -0.18100
C1383       C  0.13762612  0.64197964  0.27632911     0.10200
C1384       C  0.15247449  0.64627337  0.31676913    -0.06900
C1385       C  0.14237153  0.62716850  0.35155408    -0.18100
C1386       C  0.11849542  0.60363196  0.34666437     0.10300
S1387       S  0.14955138  0.66404751  0.22910812    -0.33100
S1388       S  0.10828902  0.57943195  0.39283056    -0.33100
H1389       H  0.10193062  0.55086702  0.37007548     0.28300
H1390       H  0.18267833  0.66468583  0.23905100     0.28300
H1391       H  0.10242623  0.61507150  0.24039829     0.18900
H1392       H  0.15350188  0.63032726  0.38276606     0.18900
C1393       C  0.34953398  0.64647493  0.43353298    -0.07000
C1394       C  0.37816072  0.64933670  0.40969480    -0.18100
C1395       C  0.40176827  0.62501511  0.41010675     0.10200
C1396       C  0.39747778  0.59740719  0.43633449    -0.06900
C1397       C  0.36854117  0.59487292  0.46008922    -0.18100
C1398       C  0.34476476  0.61878126  0.45891112     0.10300
S1399       S  0.43529905  0.62992196  0.37400821    -0.33100
S1400       S  0.30906525  0.61257897  0.49120014    -0.33100
H1401       H  0.30178508  0.64531106  0.49744622     0.28300
H1402       H  0.43527351  0.59746949  0.36105044     0.28300
H1403       H  0.38143120  0.66998691  0.38886864     0.18900
H1404       H  0.36442592  0.57427805  0.48070126     0.18900
C1405       C  0.39388086  0.90411863  0.44005287    -0.07000
C1406       C  0.39432520  0.87825667  0.46906742    -0.18100
C1407       C  0.36942080  0.85527710  0.46999474     0.10200
C1408       C  0.34365181  0.85742899  0.44025691    -0.06900
C1409       C  0.34330180  0.88381164  0.41161770    -0.18100
C1410       C  0.36791977  0.90693221  0.41122898     0.10300
S1411       S  0.37116012  0.82533027  0.51166734    -0.33100
S1412       S  0.36512163  0.93919882  0.37270458    -0.33100
H1413       H  0.39860371  0.94374320  0.36799777     0.28300
H1414       H  0.33762846  0.82494835  0.51906988     0.28300
H1415       H  0.41357584  0.87675112  0.49255029     0.18900
H1416       H  0.32411951  0.88612595  0.38819709     0.18900
C1417       C  0.10413200  0.39967012  0.70036246    -0.07000
C1418       C  0.13679097  0.40885607  0.70264638    -0.18100
C1419       C  0.16175505  0.38649493  0.69895615     0.10200
C1420       C  0.15454892  0.35383911  0.69022903    -0.06900
C1421       C  0.12194485  0.34434950  0.68841213    -0.18100
C1422       C  0.09669638  0.36671249  0.69395685     0.10300
S1423       S  0.20210045  0.40120248  0.70859857    -0.33100
S1424       S  0.05559326  0.35218821  0.69560483    -0.33100
H1425       H  0.06192419  0.32133788  0.67888071     0.28300
H1426       H  0.21181972  0.37384887  0.73189665     0.28300
H1427       H  0.14315171  0.43380476  0.70850248     0.18900
H1428       H  0.11622909  0.31927732  0.68259944     0.18900
C1429       C  0.35340147  0.35478313  0.57673292    -0.07000
C1430       C  0.34461618  0.38744003  0.58039410    -0.18100
C1431       C  0.36695341  0.41216080  0.57451882     0.10200
C1432       C  0.39896728  0.40466038  0.56257391    -0.06900
C1433       C  0.40817032  0.37213792  0.55963916    -0.18100
C1434       C  0.38605437  0.34721982  0.56743822     0.10300
S1435       S  0.35322427  0.45266245  0.58477944    -0.33100
S1436       S  0.40164456  0.30673732  0.56697168    -0.33100
H1437       H  0.38491214  0.29738710  0.60428309     0.28300
H1438       H  0.38212566  0.46250143  0.60460572     0.28300
H1439       H  0.31999911  0.39403445  0.58833920     0.18900
H1440       H  0.43284066  0.36603541  0.55126291     0.18900
C1441       C  0.34416992  0.14480540  0.55651105    -0.07000
C1442       C  0.33910094  0.11516353  0.57780044    -0.18100
C1443       C  0.36289624  0.09134325  0.57951030     0.10200
C1444       C  0.39303952  0.09685424  0.55999500    -0.06900
C1445       C  0.39838975  0.12605193  0.53845080    -0.18100
C1446       C  0.37415908  0.14957223  0.53542537     0.10300
S1447       S  0.35340224  0.05453628  0.60761199    -0.33100
S1448       S  0.38240220  0.18349853  0.50125388    -0.33100
H1449       H  0.35120806  0.18401035  0.48332821     0.28300
H1450       H  0.38524397  0.04754227  0.62022106     0.28300
H1451       H  0.31657648  0.11047419  0.59435900     0.18900
H1452       H  0.42097838  0.12971612  0.52149538     0.18900
C1453       C  0.24967752  0.24756906  0.92056106    -0.07000
C1454       C  0.22692026  0.22863374  0.89838682    -0.18100
C1455       C  0.22615271  0.22758133  0.85333803     0.10200
C1456       C  0.24840110  0.24624544  0.82967514    -0.06900
C1457       C  0.27112691  0.26516923  0.85187568    -0.18100
C1458       C  0.27175562  0.26636146  0.89675997     0.10300
S1459       S  0.19833940  0.20056084  0.82675195    -0.33100
S1460       S  0.30016285  0.29359218  0.92147599    -0.33100
H1461       H  0.27852333  0.30458321  0.95313241     0.28300
H1462       H  0.18260294  0.18937679  0.86389376     0.28300
H1463       H  0.21019024  0.21393868  0.91656438     0.18900
H1464       H  0.28816266  0.27979381  0.83402378     0.18900
C1465       C  0.24787279  0.24968237  0.33028151    -0.07000
C1466       C  0.22964368  0.27305698  0.35179385    -0.18100
C1467       C  0.23280452  0.27766229  0.39606872     0.10200
C1468       C  0.25393060  0.25777256  0.42006544    -0.06900
C1469       C  0.27248464  0.23461698  0.39846622    -0.18100
C1470       C  0.26941251  0.23008772  0.35410594     0.10300
S1471       S  0.21038484  0.31049482  0.41955004    -0.33100
S1472       S  0.29235612  0.19771138  0.33026480    -0.33100
H1473       H  0.26942149  0.19028004  0.29844153     0.28300
H1474       H  0.23338477  0.31763123  0.45140643     0.28300
H1475       H  0.21393576  0.28889612  0.33368533     0.18900
H1476       H  0.28826300  0.21882683  0.41654047     0.18900
C1477       C  0.14850911  0.35373426  0.18407278    -0.07000
C1478       C  0.14749063  0.38039001  0.15614146    -0.18100
C1479       C  0.12399706  0.40425793  0.16009635     0.10200
C1480       C  0.10030694  0.40151290  0.19224007    -0.06900
C1481       C  0.10060561  0.37486958  0.21979991    -0.18100
C1482       C  0.12481451  0.35139190  0.21683855     0.10300
S1483       S  0.12572486  0.43768376  0.12320900    -0.33100
S1484       S  0.12534574  0.32103334  0.25804630    -0.33100
H1485       H  0.15910940  0.32162037  0.26316003     0.28300
H1486       H  0.09260356  0.44481648  0.12419781     0.28300
H1487       H  0.16510709  0.38275250  0.13060205     0.18900
H1488       H  0.08285286  0.37329095  0.24532976     0.18900
C1489       C  0.34696007  0.35221348  0.06947896    -0.07000
C1490       C  0.33782442  0.38482338  0.06877327    -0.18100
C1491       C  0.36050704  0.40948222  0.06514120     0.10200
C1492       C  0.39352356  0.40193547  0.05946465    -0.06900
C1493       C  0.40300448  0.36942743  0.06097853    -0.18100
C1494       C  0.38026883  0.34453042  0.06660881     0.10300
S1495       S  0.34570327  0.45004252  0.07107089    -0.33100
S1496       S  0.39456409  0.30362056  0.07213231    -0.33100
H1497       H  0.42778444  0.31025967  0.06872456     0.28300
H1498       H  0.37200031  0.46004016  0.09637737     0.28300
H1499       H  0.31262810  0.39143711  0.07219646     0.18900
H1500       H  0.42831894  0.36351451  0.05730217     0.18900
C1501       C  0.34683547  0.14493016  0.07412966    -0.07000
C1502       C  0.36445865  0.14417163  0.03571468    -0.18100
C1503       C  0.38894870  0.12143994  0.02931817     0.10200
C1504       C  0.39636374  0.09913978  0.06211401    -0.06900
C1505       C  0.37985461  0.10068624  0.10109984    -0.18100
C1506       C  0.35574255  0.12366673  0.10784635     0.10300
S1507       S  0.41014895  0.12222375  0.97883703    -0.33100
S1508       S  0.33901136  0.12564929  0.16116753    -0.33100
H1509       H  0.33868739  0.15946943  0.16257772     0.28300
H1510       H  0.40630532  0.08915472  0.97078648     0.28300
H1511       H  0.35852529  0.16075239  0.01006081     0.18900
H1512       H  0.38592247  0.08398061  0.12657144     0.18900
C1513       C  0.84933692  0.14510586  0.67383080    -0.07000
C1514       C  0.84013230  0.11248656  0.67261550    -0.18100
C1515       C  0.86281185  0.08766428  0.67392070     0.10200
C1516       C  0.89597217  0.09492402  0.67911602    -0.06900
C1517       C  0.90549324  0.12743775  0.67922919    -0.18100
C1518       C  0.88276687  0.15245644  0.67573477     0.10300
S1519       S  0.84774311  0.04733076  0.66631802    -0.33100
S1520       S  0.89832720  0.19286250  0.67223625    -0.33100
H1521       H  0.87775881  0.20187734  0.63841296     0.28300
H1522       H  0.87396465  0.03777490  0.64051773     0.28300
H1523       H  0.81485217  0.10601682  0.66986320     0.18900
H1524       H  0.93083642  0.13348725  0.68247983     0.18900
C1525       C  0.89816288  0.89991372  0.80197762    -0.07000
C1526       C  0.89211396  0.89019712  0.84430088    -0.18100
C1527       C  0.86844374  0.86708263  0.85339696     0.10200
C1528       C  0.85034579  0.85340535  0.81950601    -0.06900
C1529       C  0.85710429  0.86237040  0.77712949    -0.18100
C1530       C  0.88085067  0.88531713  0.76798933     0.10300
S1531       S  0.86256482  0.85592773  0.90874090    -0.33100
S1532       S  0.88827659  0.89452943  0.71227627    -0.33100
H1533       H  0.92163157  0.89977929  0.71712941     0.28300
H1534       H  0.85482461  0.82358449  0.90016472     0.28300
H1535       H  0.90545620  0.90111984  0.87047091     0.18900
H1536       H  0.84356572  0.85162931  0.75099469     0.18900
C1537       C  0.15003303  0.85175344  0.82081661    -0.07000
C1538       C  0.13980726  0.85849621  0.77898895    -0.18100
C1539       C  0.11708749  0.88276618  0.77112043     0.10200
C1540       C  0.10427616  0.90098226  0.80560408    -0.06900
C1541       C  0.11389427  0.89377999  0.84751046    -0.18100
C1542       C  0.13651137  0.86943359  0.85548431     0.10300
S1543       S  0.10451506  0.88887142  0.71651066    -0.33100
S1544       S  0.14668372  0.86170663  0.91072293    -0.33100
H1545       H  0.14551720  0.82808990  0.90607426     0.28300
H1546       H  0.07161420  0.88529544  0.72662383     0.28300
H1547       H  0.14989218  0.84510840  0.75225404     0.18900
H1548       H  0.10394392  0.90737971  0.87414419     0.18900
C1549       C  0.15258465  0.14396736  0.67686000    -0.07000
C1550       C  0.16211112  0.11154788  0.67256124    -0.18100
C1551       C  0.13971596  0.08639689  0.67203011     0.10200
C1552       C  0.10655714  0.09306141  0.67793492    -0.06900
C1553       C  0.09678684  0.12532251  0.68251010    -0.18100
C1554       C  0.11921776  0.15082359  0.68164100     0.10300
S1555       S  0.15509133  0.04651909  0.66143912    -0.33100
S1556       S  0.10437074  0.19162139  0.68538686    -0.33100
H1557       H  0.07122166  0.18435168  0.68321174     0.28300
H1558       H  0.12792982  0.03636960  0.63789524     0.28300
H1559       H  0.18738880  0.10561666  0.66812398     0.18900
H1560       H  0.07146242  0.13051532  0.68775238     0.18900
C1561       C  0.99766672  0.99443341  0.44749286    -0.07000
C1562       C  0.01833399  0.97341624  0.46934318    -0.18100
C1563       C  0.02160757  0.97498307  0.51401427     0.10200
C1564       C  0.00300787  0.99734813  0.53797558    -0.11700
C1565       C  0.98204562  0.01809253  0.51614536    -0.18100
C1566       C  0.97885629  0.01661426  0.47148749     0.10300
S1567       S  0.05175037  0.94947580  0.53802712    -0.33100
S1568       S  0.94910278  0.04262055  0.44744841    -0.33100
H1569       H  0.94028457  0.02079698  0.41491089     0.28300
H1570       H  0.06167799  0.97262871  0.56830340     0.28300
H1571       H  0.03335885  0.95683826  0.45130029     0.18900
H1572       H  0.96711705  0.03478754  0.53414341     0.18900
C1573       C  0.00254275  0.00425265  0.03805989    -0.07000
C1574       C  0.97995743  0.02312427  0.01602345    -0.18100
C1575       C  0.97679744  0.02097057  0.97137285     0.10200
C1576       C  0.99727899  0.00010387  0.94776311    -0.06900
C1577       C  0.01996938  0.98135998  0.96982341    -0.18100
C1578       C  0.02312005  0.98352634  0.01444625     0.10300
S1579       S  0.94487980  0.04406226  0.94684344    -0.33100
S1580       S  0.05487296  0.96029407  0.03913275    -0.33100
H1581       H  0.06104513  0.98240117  0.07241487     0.28300
H1582       H  0.93781514  0.02119154  0.91481829     0.28300
H1583       H  0.96358408  0.03848657  0.03390362     0.18900
H1584       H  0.03626764  0.96587335  0.95200888     0.18900
C1585       C  0.89976353  0.10328474  0.19505120    -0.07000
C1586       C  0.88979398  0.11123926  0.15347306    -0.18100
C1587       C  0.86600712  0.13460894  0.14670989     0.10200
C1588       C  0.85185487  0.15051328  0.18226623    -0.06900
C1589       C  0.86284342  0.14355375  0.22372426    -0.18100
C1590       C  0.88660112  0.12012252  0.23046482     0.10300
S1591       S  0.85453770  0.14289010  0.09199692    -0.33100
S1592       S  0.89910301  0.11262922  0.28492956    -0.33100
H1593       H  0.93150057  0.10620582  0.27435788     0.28300
H1594       H  0.84860784  0.17586102  0.09864526     0.28300
H1595       H  0.89992401  0.09851723  0.12619248     0.18900
H1596       H  0.85225013  0.15581270  0.25106349     0.18900
C1597       C  0.89753389  0.89967274  0.29676213    -0.07000
C1598       C  0.89207732  0.88800954  0.33828612    -0.18100
C1599       C  0.86881867  0.86425765  0.34591140     0.10200
C1600       C  0.85026134  0.85214108  0.31147182    -0.06900
C1601       C  0.85657829  0.86281747  0.26968612    -0.18100
C1602       C  0.88015263  0.88630421  0.26192209     0.10300
S1603       S  0.86398854  0.85012316  0.40019203    -0.33100
S1604       S  0.88708318  0.89797564  0.20692074    -0.33100
H1605       H  0.92005890  0.90501422  0.21198579     0.28300
H1606       H  0.85710664  0.81810493  0.38867103     0.28300
H1607       H  0.90572475  0.89776549  0.36498848     0.18900
H1608       H  0.84270538  0.85321532  0.24309327     0.18900
C1609       C  0.15355283  0.85273177  0.31117195    -0.07000
C1610       C  0.14733546  0.86301684  0.26926594    -0.18100
C1611       C  0.12330799  0.88593583  0.26095878     0.10200
C1612       C  0.10471872  0.89876539  0.29530485    -0.06900
C1613       C  0.11013460  0.88738319  0.33698560    -0.18100
C1614       C  0.13444165  0.86466580  0.34527059     0.10300
S1615       S  0.11751234  0.89757575  0.20576773    -0.33100
S1616       S  0.14082089  0.85099627  0.39959632    -0.33100
H1617       H  0.11127015  0.86226711  0.41616179     0.28300
H1618       H  0.08371296  0.89902105  0.20880463     0.28300
H1619       H  0.16168113  0.85357101  0.24298344     0.18900
H1620       H  0.09607658  0.89714643  0.36329355     0.18900
C1621       C  0.10641108  0.09441147  0.18312831    -0.07000
C1622       C  0.13439172  0.09197502  0.20885371    -0.18100
C1623       C  0.15699482  0.11689124  0.21137540     0.10200
C1624       C  0.15160968  0.14555892  0.18850511    -0.06900
C1625       C  0.12380802  0.14847028  0.16310292    -0.18100
C1626       C  0.10170570  0.12304788  0.15920328     0.10300
S1627       S  0.19251480  0.11042791  0.24385201    -0.33100
S1628       S  0.06987350  0.12796459  0.12043863    -0.33100
H1629       H  0.07177979  0.09611905  0.10505585     0.28300
H1630       H  0.19903797  0.14307020  0.25229578     0.28300
H1631       H  0.13876393  0.07057501  0.22782217     0.18900
H1632       H  0.12044819  0.16990626  0.14375873     0.18900
loop_ 
_geom_bond_atom_site_label_1 
_geom_bond_atom_site_label_2 
_geom_bond_distance 
_geom_bond_site_symmetry_2 
_ccdc_geom_bond_type 
Zr1           O2   2.439       .  S
Zr1           O3   2.456       .  S
Zr1           O4   2.467   1_655  S
Zr1           O7   2.450       .  S
Zr1           O9   2.385   1_645  S
Zr1          O10   2.391       .  S
Zr1          O11   2.416   1_655  S
Zr1          O12   2.403       .  S
O2           H58   0.990   1_655  S
O2           H66   0.990   1_655  S
O3           C23   1.287   1_655  A
O4           C25   1.290       .  A
O5          Zr15   2.420       .  S
O5           C24   1.283       .  A
O6          Zr14   2.421   1_545  S
O6           C25   1.284       .  A
O7           C24   1.287       .  A
O8          Zr16   2.398   1_455  S
O8           C23   1.277   1_565  A
O9          Zr14   2.396       .  S
O9          Zr16   2.385   1_455  S
O10         Zr15   2.398       .  S
O10         Zr16   2.377   1_545  S
O10          H45   0.967       .  S
O11         Zr14   2.397   1_545  S
O11         Zr31   2.372       .  S
O11          H48   0.963       .  S
O12         Zr15   2.386       .  S
O12         Zr31   2.384   1_655  S
Zr13         O38   2.441   1_455  S
Zr13         O32   2.463       .  S
Zr13         O40   2.450   1_455  S
Zr13         O28   2.479       .  S
Zr13         O19   2.402   1_455  S
Zr13         O20   2.413       .  S
Zr13         O21   2.379       .  S
Zr13         O22   2.392   1_455  S
Zr14         O33   2.436   1_565  S
Zr14         O26   2.435       .  S
Zr14         O27   2.410       .  S
Zr14         O20   2.400       .  S
Zr14         O21   2.400       .  S
Zr15         O17   2.436       .  S
Zr15         O39   2.440   1_545  S
Zr15         O41   2.425   1_545  S
Zr15         O19   2.381   1_545  S
Zr15         O22   2.396   1_545  S
Zr16         O42   2.435       .  S
Zr16         O43   2.435       .  S
Zr16         O18   2.436   1_655  S
Zr16         O19   2.379       .  S
Zr16         O20   2.380   1_655  S
O17          H54   0.990       .  S
O18          H49   0.990       .  S
O18          H63   0.990       .  S
O20          H46   0.962       .  S
O21         Zr31   2.386   1_565  S
O22         Zr31   2.383   1_665  S
O22          H47   0.965       .  S
C23        C1573   1.477       .  S
C24        C1585   1.472       .  S
C25        C1621   1.494       .  S
O26          H62   0.990       .  S
O27          C29   1.281       .  A
O28          C29   1.292       .  A
C29        C1612   1.481       .  S
O30         Zr31   2.440       .  S
O30          H59   0.990       .  S
Zr31         O34   2.438       .  S
Zr31         O35   2.435   1_455  S
Zr31         O36   2.393   1_455  S
O32          C37   1.288   1_455  A
O33          H50   0.990       .  S
O33          H65   0.990       .  S
O34          H51   0.990       .  S
O35          H55   0.990       .  S
O35          H64   0.989       .  S
O36          C37   1.276   1_545  A
C37        C1561   1.479       .  S
O38          H57   0.990   1_655  S
O38          H61   0.991   1_655  S
O39          H53   0.990       .  S
O39          H60   0.990   1_565  S
O40          C44   1.287       .  A
O41          C44   1.283       .  A
O42          H52   0.990       .  S
O43          H56   0.990       .  S
C44        C1597   1.472       .  S
Zr67         O68   2.442   1_455  S
Zr67         O69   2.457       .  S
Zr67         O70   2.466       .  S
Zr67         O73   2.464   1_455  S
Zr67         O75   2.389   1_545  S
Zr67         O76   2.389   1_445  S
Zr67         O77   2.417       .  S
Zr67         O78   2.404   1_455  S
O68         H124   0.990   1_655  S
O68         H132   0.991   1_655  S
O69          C89   1.287   1_545  A
O70          C91   1.290       .  A
O71         Zr81   2.414   1_545  S
O71          C90   1.282       .  A
O72         Zr80   2.420   1_545  S
O72          C91   1.282       .  A
O73          C90   1.290       .  A
O74         Zr82   2.397   1_455  S
O74          C89   1.276       .  A
O75         Zr80   2.404       .  S
O75         Zr82   2.386   1_455  S
O76         Zr81   2.398       .  S
O76         Zr82   2.377       .  S
O76         H111   0.964       .  S
O77         Zr80   2.401   1_545  S
O77         Zr97   2.376       .  S
O77         H114   0.964       .  S
O78         Zr81   2.386   1_545  S
O78         Zr97   2.389   1_655  S
Zr79        O104   2.441   1_455  S
Zr79         O98   2.455       .  S
Zr79        O106   2.449   1_455  S
Zr79         O94   2.467       .  S
Zr79         O85   2.402   1_455  S
Zr79         O86   2.410       .  S
Zr79         O87   2.383   1_565  S
Zr79         O88   2.389   1_455  S
Zr80         O99   2.436   1_565  S
Zr80         O92   2.434       .  S
Zr80         O93   2.430       .  S
Zr80         O86   2.396       .  S
Zr80         O87   2.396   1_565  S
Zr81         O83   2.436   1_565  S
Zr81        O105   2.436       .  S
Zr81        O107   2.416       .  S
Zr81         O85   2.380       .  S
Zr81         O88   2.392       .  S
Zr82        O108   2.434       .  S
Zr82        O109   2.436       .  S
Zr82         O84   2.435   1_655  S
Zr82         O85   2.381       .  S
Zr82         O86   2.371   1_655  S
O83         H120   0.990       .  S
O84         H115   0.990       .  S
O84         H129   0.989       .  S
O86         H112   0.961       .  S
O87         Zr97   2.388       .  S
O88         Zr97   2.383   1_665  S
O88         H113   0.966       .  S
C89        C1564   1.480       .  S
C90        C1516   1.488       .  S
C91        C1552   1.485       .  S
O92         H128   0.989       .  S
O93          C95   1.284       .  A
O94          C95   1.289       .  A
C95        C1540   1.477       .  S
O96         Zr97   2.441       .  S
O96         H125   0.990       .  S
Zr97        O100   2.438       .  S
Zr97        O101   2.438   1_455  S
Zr97        O102   2.399   1_455  S
O98         C103   1.287   1_465  A
O99         H116   0.990       .  S
O99         H131   0.990       .  S
O100        H117   0.990       .  S
O101        H121   0.990       .  S
O101        H130   0.989       .  S
O102        C103   1.277       .  A
C103       C1576   1.478       .  S
O104        H123   0.991   1_655  S
O104        H127   0.990   1_655  S
O105        H119   0.990       .  S
O105        H126   0.989       .  S
O106        C110   1.287       .  A
O107        C110   1.282       .  A
O108        H118   0.990       .  S
O109        H122   0.990       .  S
C110       C1525   1.473       .  S
Zr133       O134   2.441       .  S
Zr133       O135   2.458   1_554  S
Zr133       O136   2.475       .  S
Zr133       O139   2.460       .  S
Zr133       O141   2.385       .  S
Zr133       O142   2.393       .  S
Zr133       O143   2.409       .  S
Zr133       O144   2.402       .  S
O134        H190   0.990       .  S
O134        H198   0.990       .  S
O135        C155   1.287       .  A
O136        C157   1.291       .  A
O137       Zr147   2.417       .  S
O137        C156   1.284       .  A
O138       Zr146   2.410       .  S
O138        C157   1.281       .  A
O139        C156   1.289       .  A
O140       Zr148   2.399   1_556  S
O140        C155   1.277       .  A
O141       Zr146   2.402       .  S
O141       Zr148   2.389       .  S
O142       Zr147   2.391       .  S
O142       Zr148   2.375       .  S
O142        H177   0.966       .  S
O143       Zr146   2.401       .  S
O143       Zr163   2.371       .  S
O143        H180   0.962       .  S
O144       Zr147   2.381       .  S
O144       Zr163   2.373       .  S
Zr145       O170   2.440       .  S
Zr145       O164   2.470       .  S
Zr145       O172   2.446       .  S
Zr145       O160   2.464       .  S
Zr145       O151   2.411       .  S
Zr145       O152   2.418       .  S
Zr145       O153   2.376       .  S
Zr145       O154   2.388       .  S
Zr146       O165   2.437       .  S
Zr146       O158   2.435       .  S
Zr146       O159   2.415       .  S
Zr146       O152   2.396       .  S
Zr146       O153   2.392       .  S
Zr147       O149   2.435       .  S
Zr147       O171   2.439       .  S
Zr147       O173   2.415       .  S
Zr147       O151   2.384       .  S
Zr147       O154   2.393       .  S
Zr148       O174   2.436       .  S
Zr148       O175   2.437       .  S
Zr148       O150   2.438       .  S
Zr148       O151   2.393       .  S
Zr148       O152   2.375       .  S
O149        H186   0.990       .  S
O150        H181   0.990       .  S
O150        H195   0.990       .  S
O152        H178   0.963       .  S
O153       Zr163   2.386       .  S
O154       Zr163   2.380       .  S
O154        H179   0.966       .  S
C155       C1453   1.482       .  S
C156       C1489   1.491       .  S
C157       C1501   1.481       .  S
O158        H194   0.990       .  S
O159        C161   1.280       .  A
O160        C161   1.288       .  A
C161       C1624   1.468       .  S
O162       Zr163   2.439       .  S
O162        H191   0.990       .  S
Zr163       O166   2.437       .  S
Zr163       O167   2.440       .  S
Zr163       O168   2.379       .  S
O164        C169   1.290       .  A
O165        H182   0.990       .  S
O165        H197   0.990       .  S
O166        H183   0.990       .  S
O167        H187   0.990       .  S
O167        H196   0.990       .  S
O168        C169   1.273       .  A
C169       C1465   1.476       .  S
O170        H189   0.990       .  S
O170        H193   0.990       .  S
O171        H185   0.990       .  S
O171        H192   0.990       .  S
O172        C176   1.286       .  A
O173        C176   1.283       .  A
O174        H184   0.990   1_554  S
O175        H188   0.990       .  S
C176       C1477   1.487       .  S
Zr199       O200   2.438       .  S
Zr199       O201   2.458       .  S
Zr199       O202   2.475       .  S
Zr199       O205   2.460       .  S
Zr199       O207   2.382       .  S
Zr199       O208   2.393       .  S
Zr199       O209   2.417       .  S
Zr199       O210   2.407       .  S
O200        H256   0.990       .  S
O200        H264   0.990       .  S
O201        C221   1.287       .  A
O202        C223   1.291       .  A
O203       Zr213   2.403       .  S
O203        C222   1.281       .  A
O204       Zr212   2.418       .  S
O204        C223   1.283       .  A
O205        C222   1.289       .  A
O206       Zr214   2.394       .  S
O206        C221   1.276       .  A
O207       Zr212   2.393       .  S
O207       Zr214   2.385       .  S
O208       Zr213   2.394       .  S
O208       Zr214   2.375       .  S
O208        H243   0.966       .  S
O209       Zr212   2.394       .  S
O209       Zr229   2.380       .  S
O209        H246   0.963       .  S
O210       Zr213   2.385       .  S
O210       Zr229   2.387       .  S
Zr211       O236   2.440       .  S
Zr211       O230   2.458       .  S
Zr211       O238   2.458       .  S
Zr211       O226   2.478       .  S
Zr211       O217   2.403       .  S
Zr211       O218   2.417       .  S
Zr211       O219   2.383       .  S
Zr211       O220   2.391       .  S
Zr212       O231   2.436       .  S
Zr212       O224   2.434       .  S
Zr212       O225   2.410       .  S
Zr212       O218   2.399       .  S
Zr212       O219   2.394       .  S
Zr213       O215   2.435       .  S
Zr213       O237   2.437       .  S
Zr213       O239   2.420       .  S
Zr213       O217   2.381       .  S
Zr213       O220   2.388       .  S
Zr214       O240   2.435       .  S
Zr214       O241   2.436       .  S
Zr214       O216   2.436       .  S
Zr214       O217   2.379       .  S
Zr214       O218   2.382       .  S
O215        H252   0.990       .  S
O216        H247   0.990       .  S
O216        H261   0.990       .  S
O218        H244   0.964       .  S
O219       Zr229   2.386       .  S
O220       Zr229   2.379       .  S
O220        H245   0.966       .  S
C221       C1468   1.479       .  S
C222       C1429   1.489       .  S
C223       C1441   1.498       .  S
O224        H260   0.990       .  S
O225        C227   1.282       .  A
O226        C227   1.291       .  A
C227       C1549   1.495       .  S
O228       Zr229   2.440       .  S
O228        H257   0.990       .  S
Zr229       O232   2.437       .  S
Zr229       O233   2.439       .  S
Zr229       O234   2.400       .  S
O230        C235   1.287       .  A
O231        H248   0.990       .  S
O231        H263   0.990       .  S
O232        H249   0.990       .  S
O233        H253   0.990       .  S
O233        H262   0.990       .  S
O234        C235   1.278       .  A
C235       C1456   1.483       .  S
O236        H255   0.990       .  S
O236        H259   0.989       .  S
O237        H251   0.990       .  S
O237        H258   0.990       .  S
O238        C242   1.289       .  A
O239        C242   1.283       .  A
O240        H250   0.990       .  S
O241        H254   0.990       .  S
C242       C1420   1.487       .  S
Zr265       O266   2.439       .  S
Zr265       O267   2.464       .  S
Zr265       O268   2.479       .  S
Zr265       O271   2.470       .  S
Zr265       O273   2.389       .  S
Zr265       O274   2.390       .  S
Zr265       O275   2.418       .  S
Zr265       O276   2.403       .  S
O266        H322   0.990       .  S
O266        H330   0.990       .  S
O267        C287   1.288       .  A
O268        C289   1.292       .  A
O269       Zr279   2.418       .  S
O269        C288   1.282       .  A
O270       Zr278   2.419       .  S
O270        C289   1.283       .  A
O271        C288   1.291       .  A
O272       Zr280   2.389       .  S
O272        C287   1.275       .  A
O273       Zr278   2.400       .  S
O273       Zr280   2.385       .  S
O274       Zr279   2.394       .  S
O274       Zr280   2.376       .  S
O274        H309   0.965       .  S
O275       Zr278   2.401       .  S
O275       Zr295   2.383       .  S
O275        H312   0.964       .  S
O276       Zr279   2.385       .  S
O276       Zr295   2.383       .  S
Zr277       O302   2.442       .  S
Zr277       O296   2.454       .  S
Zr277       O304   2.450       .  S
Zr277       O292   2.461       .  S
Zr277       O283   2.402       .  S
Zr277       O284   2.414       .  S
Zr277       O285   2.380       .  S
Zr277       O286   2.390       .  S
Zr278       O297   2.436       .  S
Zr278       O290   2.434       .  S
Zr278       O291   2.430       .  S
Zr278       O284   2.398       .  S
Zr278       O285   2.393       .  S
Zr279       O281   2.435       .  S
Zr279       O303   2.439       .  S
Zr279       O305   2.416       .  S
Zr279       O283   2.383       .  S
Zr279       O286   2.394       .  S
Zr280       O306   2.434       .  S
Zr280       O307   2.436       .  S
Zr280       O282   2.438       .  S
Zr280       O283   2.380       .  S
Zr280       O284   2.377       .  S
O281        H318   0.990       .  S
O282        H313   0.990       .  S
O282        H327   0.990       .  S
O284        H310   0.963       .  S
O285       Zr295   2.387       .  S
O286       Zr295   2.384       .  S
O286        H311   0.966       .  S
C287       C1357   1.484       .  S
C288       C1393   1.478       .  S
C289       C1408   1.497       .  S
O290        H326   0.990       .  S
O291        C293   1.284       .  A
O292        C293   1.287       .  A
C293       C1609   1.476       .  S
O294       Zr295   2.440       .  S
O294        H323   0.990       .  S
Zr295       O298   2.436       .  S
Zr295       O299   2.440       .  S
Zr295       O300   2.387       .  S
O296        C301   1.287       .  A
O297        H314   0.990       .  S
O297        H329   0.990       .  S
O298        H315   0.990       .  S
O299        H319   0.990       .  S
O299        H328   0.990       .  S
O300        C301   1.275       .  A
C301       C1369   1.475       .  S
O302        H321   0.990       .  S
O302        H325   0.990       .  S
O303        H317   0.990       .  S
O303        H324   0.990       .  S
O304        C308   1.287       .  A
O305        C308   1.283       .  A
O306        H316   0.990       .  S
O307        H320   0.990       .  S
C308       C1384   1.478       .  S
Zr331       O332   2.442       .  S
Zr331       O333   2.454   1_556  S
Zr331       O334   2.472       .  S
Zr331       O337   2.451       .  S
Zr331       O339   2.381       .  S
Zr331       O340   2.390       .  S
Zr331       O341   2.407       .  S
Zr331       O342   2.406       .  S
O332        H388   0.990       .  S
O332        H396   0.990       .  S
O333        C353   1.287       .  A
O334        C355   1.290       .  A
O335       Zr345   2.417       .  S
O335        C354   1.282       .  A
O336       Zr344   2.416       .  S
O336        C355   1.281       .  A
O337        C354   1.287       .  A
O338       Zr346   2.388   1_554  S
O338        C353   1.275       .  A
O339       Zr344   2.397       .  S
O339       Zr346   2.386       .  S
O340       Zr345   2.395       .  S
O340       Zr346   2.373       .  S
O340        H375   0.966       .  S
O341       Zr344   2.398       .  S
O341       Zr361   2.376       .  S
O341        H378   0.963       .  S
O342       Zr345   2.388       .  S
O342       Zr361   2.385       .  S
Zr343       O368   2.440       .  S
Zr343       O362   2.469       .  S
Zr343       O370   2.459       .  S
Zr343       O358   2.487       .  S
Zr343       O349   2.409       .  S
Zr343       O350   2.409       .  S
Zr343       O351   2.380       .  S
Zr343       O352   2.391       .  S
Zr344       O363   2.436       .  S
Zr344       O356   2.436       .  S
Zr344       O357   2.408       .  S
Zr344       O350   2.402       .  S
Zr344       O351   2.398       .  S
Zr345       O347   2.435       .  S
Zr345       O369   2.439       .  S
Zr345       O371   2.417       .  S
Zr345       O349   2.386       .  S
Zr345       O352   2.395       .  S
Zr346       O372   2.436       .  S
Zr346       O373   2.436       .  S
Zr346       O348   2.437       .  S
Zr346       O349   2.383       .  S
Zr346       O350   2.376       .  S
O347        H384   0.990       .  S
O348        H379   0.990   1_556  S
O348        H393   0.990       .  S
O350        H376   0.962       .  S
O351       Zr361   2.388       .  S
O352       Zr361   2.379       .  S
O352        H377   0.966       .  S
C353       C1372   1.475       .  S
C354       C1333   1.468       .  S
C355       C1345   1.474       .  S
O356        H392   0.990       .  S
O357        C359   1.280       .  A
O358        C359   1.293       .  A
C359       C1537   1.479       .  S
O360       Zr361   2.438       .  S
O360        H389   0.990       .  S
Zr361       O364   2.438       .  S
Zr361       O365   2.439       .  S
Zr361       O366   2.389       .  S
O362        C367   1.290       .  A
O363        H380   0.990       .  S
O363        H395   0.990       .  S
O364        H381   0.990       .  S
O365        H385   0.990       .  S
O365        H394   0.990       .  S
O366        C367   1.276       .  A
C367       C1360   1.486       .  S
O368        H387   0.990       .  S
O368        H391   0.990       .  S
O369        H383   0.990       .  S
O369        H390   0.990       .  S
O370        C374   1.289       .  A
O371        C374   1.283       .  A
O372        H382   0.990       .  S
O373        H386   0.990       .  S
C374       C1321   1.489       .  S
Zr397       O398   2.441       .  S
Zr397       O399   2.457       .  S
Zr397       O400   2.470       .  S
Zr397       O403   2.454       .  S
Zr397       O405   2.385   1_565  S
Zr397       O406   2.388       .  S
Zr397       O407   2.410   1_556  S
Zr397       O408   2.406   1_556  S
O398        H454   0.990       .  S
O398        H462   0.991       .  S
O399        C419   1.287       .  A
O400        C421   1.289       .  A
O401       Zr411   2.413   1_556  S
O401        C420   1.282       .  A
O402       Zr410   2.425   1_566  S
O402        C421   1.283       .  A
O403        C420   1.288       .  A
O404       Zr412   2.398       .  S
O404        C419   1.277   1_545  A
O405       Zr410   2.399   1_556  S
O405       Zr412   2.388       .  S
O406       Zr411   2.396   1_556  S
O406       Zr412   2.373   1_565  S
O406        H441   0.965       .  S
O407       Zr410   2.401   1_565  S
O407       Zr427   2.375       .  S
O407        H444   0.961       .  S
O408       Zr411   2.385       .  S
O408       Zr427   2.387       .  S
Zr409       O434   2.442       .  S
Zr409       O428   2.467       .  S
Zr409       O436   2.455       .  S
Zr409       O424   2.467       .  S
Zr409       O415   2.407   1_554  S
Zr409       O416   2.414   1_554  S
Zr409       O417   2.381       .  S
Zr409       O418   2.385   1_545  S
Zr410       O429   2.437   1_545  S
Zr410       O422   2.435   1_554  S
Zr410       O423   2.414       .  S
Zr410       O416   2.399   1_554  S
Zr410       O417   2.400       .  S
Zr411       O413   2.435       .  S
Zr411       O435   2.440   1_564  S
Zr411       O437   2.407   1_565  S
Zr411       O415   2.385   1_564  S
Zr411       O418   2.395       .  S
Zr412       O438   2.434       .  S
Zr412       O439   2.436       .  S
Zr412       O414   2.438       .  S
Zr412       O415   2.385       .  S
Zr412       O416   2.374       .  S
O413        H450   0.990       .  S
O414        H445   0.991       .  S
O414        H459   0.990       .  S
O416        H442   0.963       .  S
O417       Zr427   2.386   1_545  S
O418       Zr427   2.378       .  S
O418        H443   0.966   1_565  S
C419       C1273   1.477       .  S
C420       C1297   1.476       .  S
C421       C1348   1.479       .  S
O422        H458   0.990       .  S
O423        C425   1.281       .  A
O424        C425   1.289       .  A
C425       C1504   1.467       .  S
O426       Zr427   2.439       .  S
O426        H455   0.990       .  S
Zr427       O430   2.437       .  S
Zr427       O431   2.439       .  S
Zr427       O432   2.394       .  S
O428        C433   1.289       .  A
O429        H446   0.990       .  S
O429        H461   0.989       .  S
O430        H447   0.990       .  S
O431        H451   0.990       .  S
O431        H460   0.990       .  S
O432        C433   1.276   1_565  A
C433       C1285   1.482       .  S
O434        H453   0.991       .  S
O434        H457   0.990       .  S
O435        H449   0.990       .  S
O435        H456   0.990       .  S
O436        C440   1.289       .  A
O437        C440   1.280       .  A
O438        H448   0.990       .  S
O439        H452   0.990       .  S
C440       C1309   1.486       .  S
Zr463       O464   2.441       .  S
Zr463       O465   2.464       .  S
Zr463       O466   2.471       .  S
Zr463       O469   2.458       .  S
Zr463       O471   2.382   1_565  S
Zr463       O472   2.391       .  S
Zr463       O473   2.416       .  S
Zr463       O474   2.406       .  S
O464        H520   0.990       .  S
O464        H528   0.990       .  S
O465        C485   1.288       .  A
O466        C487   1.290       .  A
O467       Zr477   2.424       .  S
O467        C486   1.283       .  A
O468       Zr476   2.426   1_565  S
O468        C487   1.282       .  A
O469        C486   1.289       .  A
O470       Zr478   2.388       .  S
O470        C485   1.275   1_545  A
O471       Zr476   2.399       .  S
O471       Zr478   2.387       .  S
O472       Zr477   2.399       .  S
O472       Zr478   2.378   1_565  S
O472        H507   0.966       .  S
O473       Zr476   2.396   1_565  S
O473       Zr493   2.376       .  S
O473        H510   0.964       .  S
O474       Zr477   2.386       .  S
O474       Zr493   2.383       .  S
Zr475       O500   2.442       .  S
Zr475       O494   2.459       .  S
Zr475       O502   2.450       .  S
Zr475       O490   2.461       .  S
Zr475       O481   2.399       .  S
Zr475       O482   2.416       .  S
Zr475       O483   2.383       .  S
Zr475       O484   2.388       .  S
Zr476       O495   2.436   1_545  S
Zr476       O488   2.435       .  S
Zr476       O489   2.420       .  S
Zr476       O482   2.399       .  S
Zr476       O483   2.397       .  S
Zr477       O479   2.435       .  S
Zr477       O501   2.439   1_565  S
Zr477       O503   2.425   1_565  S
Zr477       O481   2.382   1_565  S
Zr477       O484   2.394   1_565  S
Zr478       O504   2.435       .  S
Zr478       O505   2.437       .  S
Zr478       O480   2.437       .  S
Zr478       O481   2.375       .  S
Zr478       O482   2.379       .  S
O479        H516   0.990       .  S
O480        H511   0.990       .  S
O480        H525   0.990       .  S
O482        H508   0.964       .  S
O483       Zr493   2.386   1_545  S
O484       Zr493   2.381   1_545  S
O484        H509   0.966       .  S
C485       C1288   1.479       .  S
C486       C1249   1.475       .  S
C487       C1405   1.475       .  S
O488        H524   0.990       .  S
O489        C491   1.282       .  A
O490        C491   1.288       .  A
C491       C1444   1.473       .  S
O492       Zr493   2.439       .  S
O492        H521   0.990       .  S
Zr493       O496   2.437       .  S
Zr493       O497   2.440       .  S
Zr493       O498   2.394       .  S
O494        C499   1.288       .  A
O495        H512   0.990       .  S
O495        H527   0.990       .  S
O496        H513   0.990       .  S
O497        H517   0.990       .  S
O497        H526   0.989       .  S
O498        C499   1.276   1_565  A
C499       C1276   1.477       .  S
O500        H519   0.990       .  S
O500        H523   0.990       .  S
O501        H515   0.990       .  S
O501        H522   0.990   1_545  S
O502        C506   1.287       .  A
O503        C506   1.283       .  A
O504        H514   0.990       .  S
O505        H518   0.990       .  S
C506       C1261   1.473       .  S
Zr529       O530   2.441       .  S
Zr529       O531   2.450       .  S
Zr529       O532   2.468       .  S
Zr529       O535   2.455       .  S
Zr529       O537   2.381       .  S
Zr529       O538   2.391       .  S
Zr529       O539   2.413       .  S
Zr529       O540   2.401       .  S
O530        H586   0.990       .  S
O530        H594   0.991       .  S
O531        C551   1.286       .  A
O532        C553   1.290       .  A
O533       Zr543   2.431       .  S
O533        C552   1.285       .  A
O534       Zr542   2.405       .  S
O534        C553   1.279       .  A
O535        C552   1.288       .  A
O536       Zr544   2.400       .  S
O536        C551   1.277       .  A
O537       Zr542   2.395       .  S
O537       Zr544   2.384       .  S
O538       Zr543   2.397       .  S
O538       Zr544   2.378       .  S
O538        H573   0.966       .  S
O539       Zr542   2.399       .  S
O539       Zr559   2.377       .  S
O539        H576   0.964       .  S
O540       Zr543   2.386       .  S
O540       Zr559   2.381       .  S
Zr541       O566   2.439       .  S
Zr541       O560   2.463       .  S
Zr541       O568   2.450       .  S
Zr541       O556   2.474       .  S
Zr541       O547   2.408       .  S
Zr541       O548   2.415       .  S
Zr541       O549   2.378       .  S
Zr541       O550   2.394       .  S
Zr542       O561   2.436       .  S
Zr542       O554   2.436       .  S
Zr542       O555   2.413       .  S
Zr542       O548   2.391       .  S
Zr542       O549   2.390       .  S
Zr543       O545   2.435       .  S
Zr543       O567   2.440       .  S
Zr543       O569   2.426       .  S
Zr543       O547   2.387       .  S
Zr543       O550   2.403       .  S
Zr544       O570   2.435       .  S
Zr544       O571   2.436       .  S
Zr544       O546   2.437       .  S
Zr544       O547   2.386       .  S
Zr544       O548   2.381       .  S
O545        H582   0.990       .  S
O546        H577   0.990       .  S
O546        H591   0.990       .  S
O548        H574   0.964       .  S
O549       Zr559   2.386       .  S
O550       Zr559   2.385       .  S
O550        H575   0.966       .  S
C551       C1201   1.478       .  S
C552       C1252   1.482       .  S
C553       C1237   1.485       .  S
O554        H590   0.990       .  S
O555        C557   1.283       .  A
O556        C557   1.290       .  A
C557       C1225   1.502       .  S
O558       Zr559   2.439       .  S
O558        H587   0.990       .  S
Zr559       O562   2.437       .  S
Zr559       O563   2.439       .  S
Zr559       O564   2.395       .  S
O560        C565   1.288       .  A
O561        H578   0.990       .  S
O561        H593   0.990       .  S
O562        H579   0.990       .  S
O563        H583   0.990       .  S
O563        H592   0.989       .  S
O564        C565   1.275       .  A
C565       C1213   1.479       .  S
O566        H585   0.990       .  S
O566        H589   0.990       .  S
O567        H581   0.990       .  S
O567        H588   0.990       .  S
O568        C572   1.285       .  A
O569        C572   1.283       .  A
O570        H580   0.990       .  S
O571        H584   0.990       .  S
C572       C1600   1.470       .  S
Zr595       O596   2.440       .  S
Zr595       O597   2.462   1_556  S
Zr595       O598   2.471       .  S
Zr595       O601   2.450       .  S
Zr595       O603   2.379       .  S
Zr595       O604   2.389       .  S
Zr595       O605   2.414       .  S
Zr595       O606   2.407       .  S
O596        H652   0.990       .  S
O596        H660   0.989       .  S
O597        C617   1.288       .  A
O598        C619   1.290       .  A
O599       Zr609   2.426       .  S
O599        C618   1.284       .  A
O600       Zr608   2.409       .  S
O600        C619   1.281       .  A
O601        C618   1.287       .  A
O602       Zr610   2.396   1_554  S
O602        C617   1.276       .  A
O603       Zr608   2.396       .  S
O603       Zr610   2.384       .  S
O604       Zr609   2.396       .  S
O604       Zr610   2.374       .  S
O604        H639   0.966       .  S
O605       Zr608   2.398       .  S
O605       Zr625   2.382       .  S
O605        H642   0.964       .  S
O606       Zr609   2.391       .  S
O606       Zr625   2.383       .  S
Zr607       O632   2.441       .  S
Zr607       O626   2.461       .  S
Zr607       O634   2.444       .  S
Zr607       O622   2.466       .  S
Zr607       O613   2.404       .  S
Zr607       O614   2.415       .  S
Zr607       O615   2.378       .  S
Zr607       O616   2.387       .  S
Zr608       O627   2.436       .  S
Zr608       O620   2.435       .  S
Zr608       O621   2.403       .  S
Zr608       O614   2.398       .  S
Zr608       O615   2.395       .  S
Zr609       O611   2.436       .  S
Zr609       O633   2.440       .  S
Zr609       O635   2.429       .  S
Zr609       O613   2.386       .  S
Zr609       O616   2.398       .  S
Zr610       O636   2.435       .  S
Zr610       O637   2.435       .  S
Zr610       O612   2.437       .  S
Zr610       O613   2.382       .  S
Zr610       O614   2.385       .  S
O611        H648   0.990       .  S
O612        H643   0.990   1_556  S
O612        H657   0.990       .  S
O614        H640   0.964       .  S
O615       Zr625   2.384       .  S
O616       Zr625   2.380       .  S
O616        H641   0.967       .  S
C617       C1216   1.478       .  S
C618       C1300   1.471       .  S
C619       C1189   1.488       .  S
O620        H656   0.990       .  S
O621        C623   1.280       .  A
O622        C623   1.289       .  A
C623       C1177   1.479       .  S
O624       Zr625   2.437       .  S
O624        H653   0.991       .  S
Zr625       O628   2.438       .  S
Zr625       O629   2.440       .  S
Zr625       O630   2.393       .  S
O626        C631   1.288       .  A
O627        H644   0.990       .  S
O627        H659   0.990       .  S
O628        H645   0.990       .  S
O629        H649   0.990       .  S
O629        H658   0.990       .  S
O630        C631   1.276       .  A
C631       C1204   1.480       .  S
O632        H651   0.991       .  S
O632        H655   0.990       .  S
O633        H647   0.990       .  S
O633        H654   0.990       .  S
O634        C638   1.286       .  A
O635        C638   1.284       .  A
O636        H646   0.990       .  S
O637        H650   0.990       .  S
C638       C1528   1.471       .  S
Zr661       O662   2.441       .  S
Zr661       O663   2.462   1_554  S
Zr661       O664   2.465       .  S
Zr661       O667   2.449       .  S
Zr661       O669   2.381       .  S
Zr661       O670   2.390       .  S
Zr661       O671   2.414       .  S
Zr661       O672   2.405       .  S
O662        H718   0.990       .  S
O662        H726   0.991       .  S
O663        C683   1.288       .  A
O664        C685   1.288       .  A
O665       Zr675   2.410       .  S
O665        C684   1.282       .  A
O666       Zr674   2.420       .  S
O666        C685   1.281       .  A
O667        C684   1.287       .  A
O668       Zr676   2.397   1_556  S
O668        C683   1.276       .  A
O669       Zr674   2.395       .  S
O669       Zr676   2.383       .  S
O670       Zr675   2.398       .  S
O670       Zr676   2.381       .  S
O670        H705   0.966       .  S
O671       Zr674   2.397       .  S
O671       Zr691   2.380       .  S
O671        H708   0.964       .  S
O672       Zr675   2.383       .  S
O672       Zr691   2.386       .  S
Zr673       O698   2.443       .  S
Zr673       O692   2.458       .  S
Zr673       O700   2.456       .  S
Zr673       O688   2.459       .  S
Zr673       O679   2.399       .  S
Zr673       O680   2.415       .  S
Zr673       O681   2.383       .  S
Zr673       O682   2.387       .  S
Zr674       O693   2.435       .  S
Zr674       O686   2.436       .  S
Zr674       O687   2.408       .  S
Zr674       O680   2.400       .  S
Zr674       O681   2.399       .  S
Zr675       O677   2.437       .  S
Zr675       O699   2.439       .  S
Zr675       O701   2.418       .  S
Zr675       O679   2.380       .  S
Zr675       O682   2.392       .  S
Zr676       O702   2.437       .  S
Zr676       O703   2.436       .  S
Zr676       O678   2.436       .  S
Zr676       O679   2.381       .  S
Zr676       O680   2.382       .  S
O677        H714   0.990       .  S
O678        H709   0.990       .  S
O678        H723   0.990       .  S
O680        H706   0.964       .  S
O681       Zr691   2.383       .  S
O682       Zr691   2.384       .  S
O682        H707   0.967       .  S
C683       C1132   1.481       .  S
C684       C1312   1.479       .  S
C685       C1168   1.473       .  S
O686        H722   0.990       .  S
O687        C689   1.280       .  A
O688        C689   1.288       .  A
C689       C1156   1.481       .  S
O690       Zr691   2.440       .  S
O690        H719   0.990       .  S
Zr691       O694   2.437       .  S
Zr691       O695   2.440       .  S
Zr691       O696   2.398       .  S
O692        C697   1.287       .  A
O693        H710   0.990       .  S
O693        H725   0.990       .  S
O694        H711   0.990       .  S
O695        H715   0.990       .  S
O695        H724   0.990       .  S
O696        C697   1.277       .  A
C697       C1141   1.476       .  S
O698        H717   0.991       .  S
O698        H721   0.990       .  S
O699        H713   0.990       .  S
O699        H720   0.990       .  S
O700        C704   1.288       .  A
O701        C704   1.282       .  A
O702        H712   0.990   1_554  S
O703        H716   0.990       .  S
C704       C1588   1.473       .  S
Zr727       O728   2.440       .  S
Zr727       O729   2.464       .  S
Zr727       O730   2.471       .  S
Zr727       O733   2.455       .  S
Zr727       O735   2.380       .  S
Zr727       O736   2.387       .  S
Zr727       O737   2.417       .  S
Zr727       O738   2.406       .  S
O728        H784   0.990       .  S
O728        H792   0.989       .  S
O729        C749   1.288       .  A
O730        C751   1.290       .  A
O731       Zr741   2.420       .  S
O731        C750   1.282       .  A
O732       Zr740   2.411       .  S
O732        C751   1.282       .  A
O733        C750   1.288       .  A
O734       Zr742   2.392       .  S
O734        C749   1.275       .  A
O735       Zr740   2.395       .  S
O735       Zr742   2.383       .  S
O736       Zr741   2.393       .  S
O736       Zr742   2.378       .  S
O736        H771   0.965       .  S
O737       Zr740   2.395       .  S
O737       Zr757   2.376       .  S
O737        H774   0.964       .  S
O738       Zr741   2.382       .  S
O738       Zr757   2.385       .  S
Zr739       O764   2.439       .  S
Zr739       O758   2.469       .  S
Zr739       O766   2.472       .  S
Zr739       O754   2.490       .  S
Zr739       O745   2.402       .  S
Zr739       O746   2.418       .  S
Zr739       O747   2.381       .  S
Zr739       O748   2.396       .  S
Zr740       O759   2.436       .  S
Zr740       O752   2.434       .  S
Zr740       O753   2.401       .  S
Zr740       O746   2.398       .  S
Zr740       O747   2.392       .  S
Zr741       O743   2.435       .  S
Zr741       O765   2.440       .  S
Zr741       O767   2.410       .  S
Zr741       O745   2.386       .  S
Zr741       O748   2.393       .  S
Zr742       O768   2.435       .  S
Zr742       O769   2.436       .  S
Zr742       O744   2.439       .  S
Zr742       O745   2.378       .  S
Zr742       O746   2.380       .  S
O743        H780   0.990       .  S
O744        H775   0.990       .  S
O744        H789   0.990       .  S
O746        H772   0.964       .  S
O747       Zr757   2.386       .  S
O748       Zr757   2.381       .  S
O748        H773   0.965       .  S
C749       C1144   1.479       .  S
C750       C1264   1.473       .  S
C751       C1117   1.489       .  S
O752        H788   0.990       .  S
O753        C755   1.280       .  A
O754        C755   1.294       .  A
C755       C1105   1.494       .  S
O756       Zr757   2.439       .  S
O756        H785   0.990       .  S
Zr757       O760   2.438       .  S
Zr757       O761   2.437       .  S
Zr757       O762   2.394       .  S
O758        C763   1.289       .  A
O759        H776   0.990       .  S
O759        H791   0.990       .  S
O760        H777   0.990       .  S
O761        H781   0.990       .  S
O761        H790   0.989       .  S
O762        C763   1.276       .  A
C763       C1129   1.481       .  S
O764        H783   0.989       .  S
O764        H787   0.990       .  S
O765        H779   0.990       .  S
O765        H786   0.990       .  S
O766        C770   1.292       .  A
O767        C770   1.283       .  A
O768        H778   0.990       .  S
O769        H782   0.990       .  S
C770       C1513   1.493       .  S
Zr793       O794   2.439       .  S
Zr793       O795   2.460       .  S
Zr793       O796   2.472       .  S
Zr793       O799   2.452       .  S
Zr793       O801   2.383       .  S
Zr793       O802   2.390       .  S
Zr793       O803   2.415   1_554  S
Zr793       O804   2.406   1_554  S
O794        H850   0.990       .  S
O794        H858   0.990       .  S
O795        C815   1.288       .  A
O796        C817   1.290       .  A
O797       Zr807   2.419   1_554  S
O797        C816   1.283       .  A
O798       Zr806   2.420       .  S
O798        C817   1.283       .  A
O799        C816   1.288       .  A
O800       Zr808   2.393       .  S
O800        C815   1.276       .  A
O801       Zr806   2.393       .  S
O801       Zr808   2.387       .  S
O802       Zr807   2.396   1_554  S
O802       Zr808   2.378       .  S
O802        H837   0.966       .  S
O803       Zr806   2.399   1_556  S
O803       Zr823   2.383       .  S
O803        H840   0.964       .  S
O804       Zr807   2.387       .  S
O804       Zr823   2.387       .  S
Zr805       O830   2.439       .  S
Zr805       O824   2.450       .  S
Zr805       O832   2.457       .  S
Zr805       O820   2.453       .  S
Zr805       O811   2.402   1_556  S
Zr805       O812   2.410   1_556  S
Zr805       O813   2.382       .  S
Zr805       O814   2.388       .  S
Zr806       O825   2.436   1_554  S
Zr806       O818   2.435       .  S
Zr806       O819   2.419   1_554  S
Zr806       O812   2.392       .  S
Zr806       O813   2.396   1_554  S
Zr807       O809   2.436       .  S
Zr807       O831   2.438   1_556  S
Zr807       O833   2.413       .  S
Zr807       O811   2.389   1_556  S
Zr807       O814   2.390       .  S
Zr808       O834   2.437       .  S
Zr808       O835   2.436       .  S
Zr808       O810   2.437       .  S
Zr808       O811   2.382       .  S
Zr808       O812   2.379       .  S
O809        H846   0.990       .  S
O810        H841   0.990       .  S
O810        H855   0.990       .  S
O812        H838   0.965       .  S
O813       Zr823   2.386       .  S
O814       Zr823   2.379       .  S
O814        H839   0.965       .  S
C815       C1093   1.478       .  S
C816       C1492   1.487       .  S
C817       C1165   1.500       .  S
O818        H854   0.990       .  S
O819        C821   1.282       .  A
O820        C821   1.288       .  A
C821       C1192   1.488       .  S
O822       Zr823   2.440       .  S
O822        H851   0.990       .  S
Zr823       O826   2.438       .  S
Zr823       O827   2.438       .  S
Zr823       O828   2.404       .  S
O824        C829   1.286       .  A
O825        H842   0.990       .  S
O825        H857   0.990       .  S
O826        H843   0.990       .  S
O827        H847   0.990       .  S
O827        H856   0.989       .  S
O828        C829   1.278       .  A
C829       C1084   1.478       .  S
O830        H849   0.989       .  S
O830        H853   0.991       .  S
O831        H845   0.990       .  S
O831        H852   0.989       .  S
O832        C836   1.288       .  A
O833        C836   1.282       .  A
O834        H844   0.990       .  S
O835        H848   0.990       .  S
C836       C1336   1.488       .  S
Zr859       O860   2.442       .  S
Zr859       O861   2.448       .  S
Zr859       O862   2.456       .  S
Zr859       O865   2.437       .  S
Zr859       O867   2.381       .  S
Zr859       O868   2.387       .  S
Zr859       O869   2.407       .  S
Zr859       O870   2.402       .  S
O860        H916   0.990       .  S
O860        H924   0.991       .  S
O861        C881   1.286       .  A
O862        C883   1.288       .  A
O863       Zr873   2.422       .  S
O863        C882   1.283       .  A
O864       Zr872   2.417       .  S
O864        C883   1.281       .  A
O865        C882   1.285       .  A
O866       Zr874   2.403       .  S
O866        C881   1.278       .  A
O867       Zr872   2.398       .  S
O867       Zr874   2.389       .  S
O868       Zr873   2.396       .  S
O868       Zr874   2.372       .  S
O868        H903   0.965       .  S
O869       Zr872   2.395       .  S
O869       Zr889   2.378       .  S
O869        H906   0.965       .  S
O870       Zr873   2.387       .  S
O870       Zr889   2.388       .  S
Zr871       O896   2.437       .  S
Zr871       O890   2.466       .  S
Zr871       O898   2.471       .  S
Zr871       O886   2.474       .  S
Zr871       O877   2.404       .  S
Zr871       O878   2.416       .  S
Zr871       O879   2.386       .  S
Zr871       O880   2.392       .  S
Zr872       O891   2.436       .  S
Zr872       O884   2.435       .  S
Zr872       O885   2.409       .  S
Zr872       O878   2.397       .  S
Zr872       O879   2.394       .  S
Zr873       O875   2.435       .  S
Zr873       O897   2.438       .  S
Zr873       O899   2.419       .  S
Zr873       O877   2.388       .  S
Zr873       O880   2.390       .  S
Zr874       O900   2.435       .  S
Zr874       O901   2.436       .  S
Zr874       O876   2.437       .  S
Zr874       O877   2.386       .  S
Zr874       O878   2.378       .  S
O875        H912   0.990       .  S
O876        H907   0.990       .  S
O876        H921   0.989       .  S
O878        H904   0.963       .  S
O879       Zr889   2.386       .  S
O880       Zr889   2.382       .  S
O880        H905   0.966       .  S
C881       C1081   1.479       .  S
C882       C1432   1.480       .  S
C883       C1120   1.485       .  S
O884        H920   0.990       .  S
O885        C887   1.282       .  A
O886        C887   1.291       .  A
C887       C1240   1.488       .  S
O888       Zr889   2.440       .  S
O888        H917   0.991       .  S
Zr889       O892   2.438       .  S
Zr889       O893   2.439       .  S
Zr889       O894   2.394       .  S
O890        C895   1.289       .  A
O891        H908   0.990       .  S
O891        H923   0.990       .  S
O892        H909   0.990       .  S
O893        H913   0.990       .  S
O893        H922   0.990       .  S
O894        C895   1.276       .  A
C895       C1096   1.478       .  S
O896        H915   0.989       .  S
O896        H919   0.990       .  S
O897        H911   0.990       .  S
O897        H918   0.989       .  S
O898        C902   1.291       .  A
O899        C902   1.284       .  A
O900        H910   0.990       .  S
O901        H914   0.990       .  S
C902       C1396   1.500       .  S
Zr925       O926   2.441       .  S
Zr925       O927   2.459       .  S
Zr925       O928   2.466   1_455  S
Zr925       O931   2.445       .  S
Zr925       O933   2.383   1_455  S
Zr925       O934   2.389       .  S
Zr925       O935   2.414   1_455  S
Zr925       O936   2.404       .  S
O926        H982   0.990   1_455  S
O926        H990   0.991   1_455  S
O927        C947   1.287       .  A
O928        C949   1.289       .  A
O929       Zr939   2.417       .  S
O929        C948   1.282       .  A
O930       Zr938   2.413       .  S
O930        C949   1.281       .  A
O931        C948   1.286       .  A
O932       Zr940   2.397   1_655  S
O932        C947   1.276   1_655  A
O933       Zr938   2.398       .  S
O933       Zr940   2.386   1_655  S
O934       Zr939   2.396       .  S
O934       Zr940   2.376       .  S
O934        H969   0.966       .  S
O935       Zr938   2.398       .  S
O935       Zr955   2.378       .  S
O935        H972   0.964       .  S
O936       Zr939   2.383       .  S
O936       Zr955   2.379   1_455  S
Zr937       O962   2.442       .  S
Zr937       O956   2.460       .  S
Zr937       O964   2.446   1_655  S
Zr937       O952   2.462       .  S
Zr937       O943   2.404   1_655  S
Zr937       O944   2.411       .  S
Zr937       O945   2.378       .  S
Zr937       O946   2.390   1_655  S
Zr938       O957   2.436       .  S
Zr938       O950   2.435       .  S
Zr938       O951   2.413       .  S
Zr938       O944   2.395       .  S
Zr938       O945   2.390       .  S
Zr939       O941   2.435       .  S
Zr939       O963   2.439       .  S
Zr939       O965   2.417       .  S
Zr939       O943   2.386       .  S
Zr939       O946   2.395       .  S
Zr940       O966   2.438       .  S
Zr940       O967   2.435       .  S
Zr940       O942   2.436   1_455  S
Zr940       O943   2.384       .  S
Zr940       O944   2.379   1_455  S
O941        H978   0.990       .  S
O942        H973   0.990       .  S
O942        H987   0.990       .  S
O944        H970   0.964       .  S
O945       Zr955   2.388       .  S
O946       Zr955   2.379   1_455  S
O946        H971   0.966       .  S
C947       C1057   1.478       .  S
C948       C1381   1.466       .  S
C949       C1228   1.479       .  S
O950        H986   0.990       .  S
O951        C953   1.283       .  A
O952        C953   1.289       .  A
C953       C1153   1.487       .  S
O954       Zr955   2.438   1_455  S
O954        H983   0.990       .  S
Zr955       O958   2.437       .  S
Zr955       O959   2.440   1_655  S
Zr955       O960   2.392       .  S
O956        C961   1.288       .  A
O957        H974   0.990       .  S
O957        H989   0.990       .  S
O958        H975   0.990       .  S
O959        H979   0.990       .  S
O959        H988   0.990       .  S
O960        C961   1.276       .  A
C961       C1072   1.482       .  S
O962        H981   0.990   1_655  S
O962        H985   0.990   1_655  S
O963        H977   0.990       .  S
O963        H984   0.990       .  S
O964        C968   1.284       .  A
O965        C968   1.281       .  A
O966        H976   0.990       .  S
O967        H980   0.990       .  S
C968       C1480   1.465       .  S
Zr991       O992   2.442   1_655  S
Zr991       O993   2.460       .  S
Zr991       O994   2.461       .  S
Zr991       O997   2.453   1_655  S
Zr991       O999   2.381       .  S
Zr991      O1000   2.387   1_655  S
Zr991      O1001   2.412       .  S
Zr991      O1002   2.400   1_655  S
O992       H1048   0.990   1_455  S
O992       H1056   0.991   1_455  S
O993       C1013   1.288       .  A
O994       C1015   1.287       .  A
O995      Zr1005   2.420       .  S
O995       C1014   1.282       .  A
O996      Zr1004   2.417       .  S
O996       C1015   1.281       .  A
O997       C1014   1.287       .  A
O998      Zr1006   2.391       .  S
O998       C1013   1.276       .  A
O999      Zr1004   2.397       .  S
O999      Zr1006   2.388       .  S
O1000     Zr1005   2.391       .  S
O1000     Zr1006   2.375   1_455  S
O1000      H1035   0.966       .  S
O1001     Zr1004   2.397       .  S
O1001     Zr1021   2.386   1_655  S
O1001      H1038   0.964       .  S
O1002     Zr1005   2.382       .  S
O1002     Zr1021   2.382       .  S
Zr1003     O1028   2.441       .  S
Zr1003     O1022   2.463       .  S
Zr1003     O1030   2.462       .  S
Zr1003     O1018   2.477   1_455  S
Zr1003     O1009   2.407       .  S
Zr1003     O1010   2.415   1_455  S
Zr1003     O1011   2.381   1_455  S
Zr1003     O1012   2.391       .  S
Zr1004     O1023   2.435       .  S
Zr1004     O1016   2.435       .  S
Zr1004     O1017   2.408       .  S
Zr1004     O1010   2.401       .  S
Zr1004     O1011   2.395       .  S
Zr1005     O1007   2.437       .  S
Zr1005     O1029   2.439       .  S
Zr1005     O1031   2.409       .  S
Zr1005     O1009   2.385       .  S
Zr1005     O1012   2.399       .  S
Zr1006     O1032   2.435   1_655  S
Zr1006     O1033   2.436       .  S
Zr1006     O1008   2.437       .  S
Zr1006     O1009   2.382   1_655  S
Zr1006     O1010   2.373       .  S
O1007      H1044   0.990       .  S
O1008      H1039   0.990       .  S
O1008      H1053   0.990       .  S
O1010      H1036   0.963       .  S
O1011     Zr1021   2.386   1_655  S
O1012     Zr1021   2.381       .  S
O1012      H1037   0.967       .  S
C1013      C1069   1.480       .  S
C1014      C1324   1.469       .  S
C1015      C1180   1.467       .  S
O1016      H1052   0.990       .  S
O1017      C1019   1.281       .  A
O1018      C1019   1.292       .  A
C1019      C1108   1.488       .  S
O1020     Zr1021   2.440       .  S
O1020      H1049   0.990       .  S
Zr1021     O1024   2.437   1_455  S
Zr1021     O1025   2.440       .  S
Zr1021     O1026   2.399       .  S
O1022      C1027   1.288       .  A
O1023      H1040   0.990       .  S
O1023      H1055   0.990       .  S
O1024      H1041   0.990       .  S
O1025      H1045   0.990       .  S
O1025      H1054   0.989       .  S
O1026      C1027   1.277       .  A
C1027      C1060   1.481       .  S
O1028      H1047   0.990   1_455  S
O1028      H1051   0.991   1_455  S
O1029      H1043   0.990       .  S
O1029      H1050   0.990       .  S
O1030      C1034   1.289       .  A
O1031      C1034   1.282       .  A
O1032      H1042   0.990       .  S
O1033      H1046   0.990   1_655  S
C1034      C1417   1.491       .  S
C1057      C1058   1.401       .  A
C1057      C1062   1.416   1_455  A
C1058      C1059   1.402       .  A
C1058      H1067   1.084       .  S
C1059      C1060   1.418       .  A
C1059      S1063   1.804       .  S
C1060      C1061   1.401   1_455  A
C1061      C1062   1.399       .  A
C1061      H1068   1.084       .  S
C1062      S1064   1.803       .  S
S1063      H1066   1.407       .  S
S1064      H1065   1.407       .  S
C1069      C1070   1.408   1_655  A
C1069      C1074   1.411       .  A
C1070      C1071   1.399   1_556  A
C1070      H1079   1.084       .  S
C1071      C1072   1.412   1_455  A
C1071      S1075   1.801       .  S
C1072      C1073   1.409       .  A
C1073      C1074   1.399   1_554  A
C1073      H1080   1.084       .  S
C1074      S1076   1.802       .  S
S1075      H1078   1.406       .  S
S1076      H1077   1.407       .  S
C1081      C1082   1.402       .  A
C1081      C1086   1.417       .  A
C1082      C1083   1.399       .  A
C1082      H1091   1.084       .  S
C1083      C1084   1.415       .  A
C1083      S1087   1.802       .  S
C1084      C1085   1.401       .  A
C1085      C1086   1.399       .  A
C1085      H1092   1.084       .  S
C1086      S1088   1.803       .  S
S1087      H1090   1.408       .  S
S1088      H1089   1.407       .  S
C1093      C1094   1.407       .  A
C1093      C1098   1.411       .  A
C1094      C1095   1.400       .  A
C1094      H1103   1.084       .  S
C1095      C1096   1.411       .  A
C1095      S1099   1.802       .  S
C1096      C1097   1.407       .  A
C1097      C1098   1.399       .  A
C1097      H1104   1.084       .  S
C1098      S1100   1.803       .  S
S1099      H1102   1.407       .  S
S1100      H1101   1.407       .  S
C1105      C1106   1.408       .  A
C1105      C1110   1.417       .  A
C1106      C1107   1.396       .  A
C1106      H1115   1.084       .  S
C1107      C1108   1.415       .  A
C1107      S1111   1.806       .  S
C1108      C1109   1.407       .  A
C1109      C1110   1.409       .  A
C1109      H1116   1.082       .  S
C1110      S1112   1.806       .  S
S1111      H1114   1.408       .  S
S1112      H1113   1.406       .  S
C1117      C1118   1.407       .  A
C1117      C1122   1.418       .  A
C1118      C1119   1.396       .  A
C1118      H1127   1.084       .  S
C1119      C1120   1.414       .  A
C1119      S1123   1.804       .  S
C1120      C1121   1.406       .  A
C1121      C1122   1.405       .  A
C1121      H1128   1.082       .  S
C1122      S1124   1.807       .  S
S1123      H1126   1.408       .  S
S1124      H1125   1.407       .  S
C1129      C1130   1.402       .  A
C1129      C1134   1.418       .  A
C1130      C1131   1.401       .  A
C1130      H1139   1.084       .  S
C1131      C1132   1.418       .  A
C1131      S1135   1.804       .  S
C1132      C1133   1.401       .  A
C1133      C1134   1.400       .  A
C1133      H1140   1.084       .  S
C1134      S1136   1.804       .  S
S1135      H1138   1.407       .  S
S1136      H1137   1.406       .  S
C1141      C1142   1.400       .  A
C1141      C1146   1.416       .  A
C1142      C1143   1.399       .  A
C1142      H1151   1.084       .  S
C1143      C1144   1.418       .  A
C1143      S1147   1.805       .  S
C1144      C1145   1.402       .  A
C1145      C1146   1.401       .  A
C1145      H1152   1.084       .  S
C1146      S1148   1.804       .  S
S1147      H1150   1.407       .  S
S1148      H1149   1.407       .  S
C1153      C1154   1.406       .  A
C1153      C1158   1.417       .  A
C1154      C1155   1.395       .  A
C1154      H1163   1.084       .  S
C1155      C1156   1.414       .  A
C1155      S1159   1.804       .  S
C1156      C1157   1.405       .  A
C1157      C1158   1.405       .  A
C1157      H1164   1.082       .  S
C1158      S1160   1.808       .  S
S1159      H1162   1.407       .  S
S1160      H1161   1.407       .  S
C1165      C1166   1.414       .  A
C1165      C1170   1.419       .  A
C1166      C1167   1.398       .  A
C1166      H1175   1.083       .  S
C1167      C1168   1.406       .  A
C1167      S1171   1.804       .  S
C1168      C1169   1.403       .  A
C1169      C1170   1.404       .  A
C1169      H1176   1.084       .  S
C1170      S1172   1.799       .  S
S1171      H1174   1.406   1_554  S
S1172      H1173   1.405       .  S
C1177      C1178   1.409       .  A
C1177      C1182   1.411       .  A
C1178      C1179   1.397       .  A
C1178      H1187   1.084       .  S
C1179      C1180   1.407       .  A
C1179      S1183   1.804       .  S
C1180      C1181   1.405       .  A
C1181      C1182   1.401       .  A
C1181      H1188   1.084       .  S
C1182      S1184   1.802       .  S
S1183      H1186   1.404       .  S
S1184      H1185   1.407       .  S
C1189      C1190   1.407       .  A
C1189      C1194   1.416       .  A
C1190      C1191   1.402       .  A
C1190      H1199   1.083       .  S
C1191      C1192   1.416       .  A
C1191      S1195   1.810       .  S
C1192      C1193   1.406       .  A
C1193      C1194   1.401       .  A
C1193      H1200   1.084       .  S
C1194      S1196   1.800       .  S
S1195      H1198   1.407       .  S
S1196      H1197   1.407       .  S
C1201      C1202   1.407       .  A
C1201      C1206   1.411       .  A
C1202      C1203   1.405       .  A
C1202      H1211   1.083       .  S
C1203      C1204   1.411       .  A
C1203      S1207   1.808       .  S
C1204      C1205   1.407       .  A
C1205      C1206   1.398       .  A
C1205      H1212   1.084       .  S
C1206      S1208   1.804       .  S
S1207      H1210   1.407       .  S
S1208      H1209   1.407       .  S
C1213      C1214   1.400       .  A
C1213      C1218   1.415       .  A
C1214      C1215   1.402       .  A
C1214      H1223   1.083       .  S
C1215      C1216   1.414       .  A
C1215      S1219   1.808       .  S
C1216      C1217   1.402       .  A
C1217      C1218   1.406       .  A
C1217      H1224   1.083       .  S
C1218      S1220   1.807       .  S
S1219      H1222   1.407       .  S
S1220      H1221   1.407       .  S
C1225      C1226   1.413       .  A
C1225      C1230   1.422       .  A
C1226      C1227   1.396       .  A
C1226      H1235   1.083       .  S
C1227      C1228   1.409       .  A
C1227      S1231   1.804       .  S
C1228      C1229   1.403       .  A
C1229      C1230   1.404       .  A
C1229      H1236   1.084       .  S
C1230      S1232   1.796       .  S
S1231      H1234   1.408       .  S
S1232      H1233   1.407       .  S
C1237      C1238   1.407       .  A
C1237      C1242   1.415       .  A
C1238      C1239   1.408       .  A
C1238      H1247   1.082       .  S
C1239      C1240   1.417       .  A
C1239      S1243   1.807       .  S
C1240      C1241   1.405       .  A
C1241      C1242   1.394       .  A
C1241      H1248   1.084       .  S
C1242      S1244   1.805       .  S
S1243      H1246   1.407       .  S
S1244      H1245   1.408       .  S
C1249      C1250   1.400       .  A
C1249      C1254   1.414       .  A
C1250      C1251   1.400       .  A
C1250      H1259   1.084       .  S
C1251      C1252   1.415       .  A
C1251      S1255   1.801       .  S
C1252      C1253   1.404       .  A
C1253      C1254   1.403       .  A
C1253      H1260   1.084       .  S
C1254      S1256   1.803       .  S
S1255      H1258   1.407       .  S
S1256      H1257   1.406       .  S
C1261      C1262   1.401       .  A
C1261      C1266   1.414       .  A
C1262      C1263   1.400       .  A
C1262      H1271   1.084       .  S
C1263      C1264   1.414       .  A
C1263      S1267   1.803       .  S
C1264      C1265   1.401       .  A
C1265      C1266   1.400       .  A
C1265      H1272   1.084       .  S
C1266      S1268   1.803       .  S
S1267      H1270   1.406       .  S
S1268      H1269   1.406       .  S
C1273      C1274   1.401       .  A
C1273      C1278   1.416   1_565  A
C1274      C1275   1.401       .  A
C1274      H1283   1.084       .  S
C1275      C1276   1.417   1_565  A
C1275      S1279   1.804       .  S
C1276      C1277   1.401       .  A
C1277      C1278   1.399       .  A
C1277      H1284   1.084       .  S
C1278      S1280   1.805       .  S
S1279      H1282   1.407       .  S
S1280      H1281   1.407       .  S
C1285      C1286   1.400       .  A
C1285      C1290   1.419   1_545  A
C1286      C1287   1.399       .  A
C1286      H1295   1.084       .  S
C1287      C1288   1.417   1_545  A
C1287      S1291   1.804       .  S
C1288      C1289   1.401       .  A
C1289      C1290   1.401       .  A
C1289      H1296   1.084       .  S
C1290      S1292   1.803       .  S
S1291      H1294   1.407       .  S
S1292      H1293   1.407       .  S
C1297      C1298   1.405       .  A
C1297      C1302   1.413       .  A
C1298      C1299   1.398       .  A
C1298      H1307   1.084   1_556  S
C1299      C1300   1.410       .  A
C1299      S1303   1.806   1_556  S
C1300      C1301   1.404       .  A
C1301      C1302   1.402       .  A
C1301      H1308   1.084       .  S
C1302      S1304   1.804       .  S
S1303      H1306   1.405   1_554  S
S1304      H1305   1.407       .  S
C1309      C1310   1.407       .  A
C1309      C1314   1.418       .  A
C1310      C1311   1.402       .  A
C1310      H1319   1.084       .  S
C1311      C1312   1.415       .  A
C1311      S1315   1.802       .  S
C1312      C1313   1.402       .  A
C1313      C1314   1.394       .  A
C1313      H1320   1.084       .  S
C1314      S1316   1.803       .  S
S1315      H1318   1.407       .  S
S1316      H1317   1.407       .  S
C1321      C1322   1.410       .  A
C1321      C1326   1.417       .  A
C1322      C1323   1.399       .  A
C1322      H1331   1.084       .  S
C1323      C1324   1.408       .  A
C1323      S1327   1.805       .  S
C1324      C1325   1.402       .  A
C1325      C1326   1.401       .  A
C1325      H1332   1.084       .  S
C1326      S1328   1.802       .  S
S1327      H1330   1.406       .  S
S1328      H1329   1.408       .  S
C1333      C1334   1.402       .  A
C1333      C1338   1.407       .  A
C1334      C1335   1.402       .  A
C1334      H1343   1.084       .  S
C1335      C1336   1.417       .  A
C1335      S1339   1.799       .  S
C1336      C1337   1.409       .  A
C1337      C1338   1.395       .  A
C1337      H1344   1.084       .  S
C1338      S1340   1.804   1_556  S
S1339      H1342   1.407       .  S
S1340      H1341   1.404       .  S
C1345      C1346   1.396       .  A
C1345      C1350   1.415       .  A
C1346      C1347   1.398       .  A
C1346      H1355   1.084   1_556  S
C1347      C1348   1.417       .  A
C1347      S1351   1.798   1_556  S
C1348      C1349   1.400       .  A
C1349      C1350   1.406       .  A
C1349      H1356   1.083       .  S
C1350      S1352   1.807       .  S
S1351      H1354   1.405       .  S
S1352      H1353   1.407       .  S
C1357      C1358   1.409       .  A
C1357      C1362   1.412       .  A
C1358      C1359   1.404       .  A
C1358      H1367   1.083       .  S
C1359      C1360   1.411       .  A
C1359      S1363   1.808       .  S
C1360      C1361   1.410       .  A
C1361      C1362   1.400       .  A
C1361      H1368   1.084       .  S
C1362      S1364   1.804       .  S
S1363      H1366   1.407       .  S
S1364      H1365   1.407       .  S
C1369      C1370   1.406       .  A
C1369      C1374   1.410       .  A
C1370      C1371   1.396       .  A
C1370      H1379   1.084       .  S
C1371      C1372   1.410       .  A
C1371      S1375   1.802       .  S
C1372      C1373   1.407       .  A
C1373      C1374   1.402       .  A
C1373      H1380   1.083       .  S
C1374      S1376   1.809       .  S
S1375      H1378   1.406       .  S
S1376      H1377   1.407       .  S
C1381      C1382   1.403       .  A
C1381      C1386   1.408       .  A
C1382      C1383   1.400       .  A
C1382      H1391   1.084       .  S
C1383      C1384   1.413       .  A
C1383      S1387   1.802       .  S
C1384      C1385   1.407       .  A
C1385      C1386   1.398       .  A
C1385      H1392   1.084       .  S
C1386      S1388   1.805       .  S
S1387      H1390   1.407       .  S
S1388      H1389   1.406       .  S
C1393      C1394   1.403       .  A
C1393      C1398   1.410       .  A
C1394      C1395   1.406       .  A
C1394      H1403   1.084       .  S
C1395      C1396   1.419       .  A
C1395      S1399   1.797       .  S
C1396      C1397   1.411       .  A
C1397      C1398   1.399       .  A
C1397      H1404   1.083       .  S
C1398      S1400   1.806       .  S
S1399      H1402   1.406       .  S
S1400      H1401   1.405       .  S
C1405      C1406   1.404       .  A
C1405      C1410   1.406       .  A
C1406      C1407   1.405       .  A
C1406      H1415   1.084       .  S
C1407      C1408   1.417       .  A
C1407      S1411   1.800       .  S
C1408      C1409   1.414       .  A
C1409      C1410   1.400       .  A
C1409      H1416   1.083       .  S
C1410      S1412   1.803       .  S
S1411      H1414   1.407       .  S
S1412      H1413   1.406       .  S
C1417      C1418   1.407       .  A
C1417      C1422   1.416       .  A
C1418      C1419   1.394       .  A
C1418      H1427   1.084       .  S
C1419      C1420   1.414       .  A
C1419      S1423   1.804       .  S
C1420      C1421   1.407       .  A
C1421      C1422   1.409       .  A
C1421      H1428   1.082       .  S
C1422      S1424   1.806       .  S
S1423      H1426   1.408       .  S
S1424      H1425   1.407       .  S
C1429      C1430   1.408       .  A
C1429      C1434   1.417       .  A
C1430      C1431   1.393       .  A
C1430      H1439   1.084       .  S
C1431      C1432   1.411       .  A
C1431      S1435   1.803       .  S
C1432      C1433   1.406       .  A
C1433      C1434   1.403       .  A
C1433      H1440   1.084       .  S
C1434      S1436   1.801       .  S
S1435      H1438   1.407       .  S
S1436      H1437   1.407       .  S
C1441      C1442   1.414       .  A
C1441      C1446   1.418       .  A
C1442      C1443   1.397       .  A
C1442      H1451   1.083       .  S
C1443      C1444   1.406       .  A
C1443      S1447   1.805       .  S
C1444      C1445   1.404       .  A
C1445      C1446   1.403       .  A
C1445      H1452   1.084       .  S
C1446      S1448   1.799       .  S
S1447      H1450   1.406       .  S
S1448      H1449   1.408       .  S
C1453      C1454   1.408       .  A
C1453      C1458   1.412       .  A
C1454      C1455   1.404       .  A
C1454      H1463   1.083       .  S
C1455      C1456   1.411       .  A
C1455      S1459   1.808       .  S
C1456      C1457   1.407       .  A
C1457      C1458   1.399       .  A
C1457      H1464   1.084       .  S
C1458      S1460   1.803       .  S
S1459      H1462   1.407       .  S
S1460      H1461   1.407       .  S
C1465      C1466   1.399       .  A
C1465      C1470   1.418       .  A
C1466      C1467   1.398       .  A
C1466      H1475   1.084       .  S
C1467      C1468   1.417       .  A
C1467      S1471   1.803       .  S
C1468      C1469   1.402       .  A
C1469      C1470   1.400       .  A
C1469      H1476   1.084       .  S
C1470      S1472   1.805       .  S
S1471      H1474   1.407       .  S
S1472      H1473   1.407       .  S
C1477      C1478   1.409       .  A
C1477      C1482   1.418       .  A
C1478      C1479   1.394       .  A
C1478      H1487   1.083       .  S
C1479      C1480   1.406       .  A
C1479      S1483   1.804       .  S
C1480      C1481   1.401       .  A
C1481      C1482   1.401       .  A
C1481      H1488   1.084       .  S
C1482      S1484   1.800       .  S
S1483      H1486   1.403       .  S
S1484      H1485   1.407       .  S
C1489      C1490   1.406       .  A
C1489      C1494   1.418       .  A
C1490      C1491   1.394       .  A
C1490      H1499   1.084       .  S
C1491      C1492   1.413       .  A
C1491      S1495   1.801       .  S
C1492      C1493   1.406       .  A
C1493      C1494   1.409       .  A
C1493      H1500   1.082       .  S
C1494      S1496   1.807       .  S
S1495      H1498   1.407       .  S
S1496      H1497   1.407       .  S
C1501      C1502   1.401       .  A
C1501      C1506   1.422       .  A
C1502      C1503   1.399       .  A
C1502      H1511   1.084       .  S
C1503      C1504   1.414       .  A
C1503      S1507   1.800   1_554  S
C1504      C1505   1.394       .  A
C1505      C1506   1.397       .  A
C1505      H1512   1.084       .  S
C1506      S1508   1.801       .  S
S1507      H1510   1.404       .  S
S1508      H1509   1.405       .  S
C1513      C1514   1.407       .  A
C1513      C1518   1.418       .  A
C1514      C1515   1.395       .  A
C1514      H1523   1.084       .  S
C1515      C1516   1.415       .  A
C1515      S1519   1.802       .  S
C1516      C1517   1.406       .  A
C1517      C1518   1.406       .  A
C1517      H1524   1.084       .  S
C1518      S1520   1.800       .  S
S1519      H1522   1.407       .  S
S1520      H1521   1.407       .  S
C1525      C1526   1.402       .  A
C1525      C1530   1.415       .  A
C1526      C1527   1.400       .  A
C1526      H1535   1.084       .  S
C1527      C1528   1.414       .  A
C1527      S1531   1.802       .  S
C1528      C1529   1.400       .  A
C1529      C1530   1.398       .  A
C1529      H1536   1.084       .  S
C1530      S1532   1.804       .  S
S1531      H1534   1.406       .  S
S1532      H1533   1.406       .  S
C1537      C1538   1.399       .  A
C1537      C1542   1.420       .  A
C1538      C1539   1.401       .  A
C1538      H1547   1.084       .  S
C1539      C1540   1.416       .  A
C1539      S1543   1.798       .  S
C1540      C1541   1.398       .  A
C1541      C1542   1.401       .  A
C1541      H1548   1.084       .  S
C1542      S1544   1.801       .  S
S1543      H1546   1.406       .  S
S1544      H1545   1.404       .  S
C1549      C1550   1.409       .  A
C1549      C1554   1.418       .  A
C1550      C1551   1.396       .  A
C1550      H1559   1.084       .  S
C1551      C1552   1.412       .  A
C1551      S1555   1.804       .  S
C1552      C1553   1.406       .  A
C1553      C1554   1.408       .  A
C1553      H1560   1.083       .  S
C1554      S1556   1.806       .  S
S1555      H1558   1.407       .  S
S1556      H1557   1.407       .  S
C1561      C1562   1.400   1_655  A
C1561      C1566   1.418   1_565  A
C1562      C1563   1.400       .  A
C1562      H1571   1.084       .  S
C1563      C1564   1.418       .  A
C1563      S1567   1.801       .  S
C1564      C1565   1.400   1_465  A
C1565      C1566   1.399       .  A
C1565      H1572   1.084       .  S
C1566      S1568   1.802       .  S
S1567      H1570   1.407       .  S
S1568      H1569   1.407       .  S
C1573      C1574   1.401   1_455  A
C1573      C1578   1.416   1_545  A
C1574      C1575   1.400   1_554  A
C1574      H1583   1.084       .  S
C1575      C1576   1.417       .  A
C1575      S1579   1.804       .  S
C1576      C1577   1.401   1_645  A
C1577      C1578   1.399   1_556  A
C1577      H1584   1.084       .  S
C1578      S1580   1.804       .  S
S1579      H1582   1.407       .  S
S1580      H1581   1.407       .  S
C1585      C1586   1.400       .  A
C1585      C1590   1.414       .  A
C1586      C1587   1.399       .  A
C1586      H1595   1.084       .  S
C1587      C1588   1.415       .  A
C1587      S1591   1.803       .  S
C1588      C1589   1.400       .  A
C1589      C1590   1.400       .  A
C1589      H1596   1.084       .  S
C1590      S1592   1.802       .  S
S1591      H1594   1.406       .  S
S1592      H1593   1.406       .  S
C1597      C1598   1.400       .  A
C1597      C1602   1.415       .  A
C1598      C1599   1.398       .  A
C1598      H1607   1.084       .  S
C1599      C1600   1.412       .  A
C1599      S1603   1.801       .  S
C1600      C1601   1.400       .  A
C1601      C1602   1.400       .  A
C1601      H1608   1.084       .  S
C1602      S1604   1.804       .  S
S1603      H1606   1.406       .  S
S1604      H1605   1.405       .  S
C1609      C1610   1.398       .  A
C1609      C1614   1.413       .  A
C1610      C1611   1.401       .  A
C1610      H1619   1.084       .  S
C1611      C1612   1.421       .  A
C1611      S1615   1.803       .  S
C1612      C1613   1.401       .  A
C1613      C1614   1.404       .  A
C1613      H1620   1.083       .  S
C1614      S1616   1.805       .  S
S1615      H1618   1.404       .  S
S1616      H1617   1.407       .  S
C1621      C1622   1.413       .  A
C1621      C1626   1.418       .  A
C1622      C1623   1.397       .  A
C1622      H1631   1.083       .  S
C1623      C1624   1.406       .  A
C1623      S1627   1.806       .  S
C1624      C1625   1.403       .  A
C1625      C1626   1.402       .  A
C1625      H1632   1.084       .  S
C1626      S1628   1.800       .  S
S1627      H1630   1.406       .  S
S1628      H1629   1.408       .  S
