geometry optimzed in LAMMPS
_audit_creation_date              2020-11-30 
_audit_creation_method            'lammps2cif' 
_symmetry_space_group_name_H-M    'P1' 
_symmetry_Int_Tables_number       1 
_symmetry_cell_setting            triclinic 
loop_ 
_symmetry_equiv_pos_as_xyz 
  x,y,z 
_cell_length_a                    50.88005362 
_cell_length_b                    49.875829188637105 
_cell_length_c                    52.2553271632358 
_cell_angle_alpha                 89.9036282359772 
_cell_angle_beta                  89.91419332384748 
_cell_angle_gamma                 90.20574836572482 
loop_ 
_atom_site_label 
_atom_site_type_symbol 
_atom_site_fract_x 
_atom_site_fract_y 
_atom_site_fract_z 
_atom_site_charge 
N1          N  0.95174542  0.00114905  0.24647114    -0.36700
N2          N  0.98934655  0.95751799  0.25343273    -0.57200
N3          N  0.03147482  0.99742955  0.25715467    -0.36700
N4          N  0.99375464  0.04108101  0.25361984    -0.57200
C5          C  0.93502674  0.97995616  0.24779791     0.26900
C6          C  0.93724768  0.02381418  0.24809805     0.26900
C7          C  0.04527962  0.97482043  0.26174508     0.26900
C8          C  0.04761742  0.01850353  0.26160503     0.26900
C9          C  0.96814135  0.94302103  0.24608638     0.35500
C10         C  0.01035775  0.94113194  0.25123666     0.35500
C11         C  0.97389765  0.05764545  0.24695436     0.35500
C12         C  0.01624365  0.05556043  0.25159886     0.35500
C13         C  0.90949819  0.98928511  0.25004623    -0.21900
C14         C  0.91089002  0.01689456  0.25026367    -0.21900
C15         C  0.07051161  0.98158798  0.26947862    -0.21900
C16         C  0.07197905  0.00914065  0.26942375    -0.21900
C17         C  0.97563677  0.91709600  0.23999414    -0.23000
C18         C  0.00234526  0.91593452  0.24314127    -0.23000
C19         C  0.98380250  0.08293708  0.24133252    -0.23000
C20         C  0.01056654  0.08158985  0.24419956    -0.23000
C21         C  0.94196611  0.95254315  0.24519478    -0.18300
C22         C  0.94688670  0.05054180  0.24600141    -0.18300
C23         C  0.04189763  0.04573858  0.25628329    -0.18300
C24         C  0.03676327  0.94840572  0.25628021    -0.18300
H25         H  0.89165430  0.97744348  0.25100475     0.14600
H26         H  0.89429409  0.03035083  0.25146084     0.14600
H27         H  0.08648266  0.96806251  0.27386231     0.14600
H28         H  0.08929948  0.02092199  0.27381365     0.14600
H29         H  0.96323243  0.90078218  0.23355784     0.12900
H30         H  0.01449274  0.89855805  0.23958459     0.12800
H31         H  0.97295001  0.10048530  0.23536397     0.12900
H32         H  0.02427690  0.09788360  0.24093580     0.12800
H33         H  0.97144675  0.00027234  0.24166567     0.26100
H34         H  0.01358538  0.99831041  0.24786869     0.26100
Zr35       Zr  0.26928515  0.28404841  0.22024416     2.17500
O36         O  0.30835557  0.30669635  0.23687937    -0.51400
O37         O  0.25044649  0.31666396  0.24978260    -0.74600
O38         O  0.28642788  0.31934014  0.19277089    -0.81400
O39         O  0.27932432  0.22455063  0.26654627    -0.83100
O40         O  0.26746695  0.31902635  0.15348387    -0.78700
O41         O  0.29719660  0.26352017  0.25222899    -0.90400
O42         O  0.20621412  0.31208415  0.24939374    -0.76300
O43         O  0.23035702  0.29813483  0.19903486    -0.85800
O44         O  0.23460366  0.26199265  0.24261709    -0.85500
O45         O  0.27468989  0.26935637  0.17658871    -0.72300
O46         O  0.27792133  0.23695659  0.21671062    -0.84400
Zr47       Zr  0.20772137  0.21421192  0.17333115     2.26400
Zr48       Zr  0.23479539  0.28294831  0.15559228     2.06300
Zr49       Zr  0.24242547  0.21475526  0.23808064     2.10000
Zr50       Zr  0.19569444  0.27554569  0.22095873     1.78800
O51         O  0.26633821  0.17266698  0.24129575    -0.93200
O52         O  0.17036861  0.31384450  0.20592281    -0.41000
O53         O  0.20300871  0.22848726  0.21688170    -0.77700
O54         O  0.19869361  0.26143516  0.17727953    -0.96300
O55         O  0.24294842  0.23584529  0.15158464    -0.89600
O56         O  0.24643371  0.19963609  0.19467413    -0.92500
C57         C  0.22734179  0.32333985  0.25727198     1.01300
C58         C  0.29703862  0.24301066  0.26709795     1.14200
C59         C  0.28397597  0.32828664  0.16988308     1.05000
O60         O  0.21032748  0.32441413  0.15006742    -0.94600
O61         O  0.20123767  0.27104260  0.12391072    -0.90400
O62         O  0.18496635  0.23041383  0.13563913    -0.83500
C63         C  0.18563455  0.25091675  0.12080514     1.11600
O64         O  0.32777614  0.23447154  0.17790414    -0.96600
Zr65       Zr  0.28159571  0.22213413  0.17344078     1.88900
O66         O  0.22650833  0.18166571  0.14357438    -0.73300
O67         O  0.25235778  0.28352841  0.11215339    -0.52500
O68         O  0.30277292  0.23073483  0.13239061    -0.97200
O69         O  0.30648847  0.18469394  0.19094987    -0.54400
O70         O  0.27078685  0.18639661  0.14431131    -0.73800
C71         C  0.24972228  0.17535842  0.13598817     0.98600
O72         O  0.16573898  0.19158864  0.16612493    -0.62600
O73         O  0.22633191  0.21030283  0.28184796    -0.57400
O74         O  0.18963524  0.17957659  0.20080806    -0.94100
O75         O  0.20690783  0.18180770  0.24086034    -0.92500
O76         O  0.17517854  0.26196286  0.26112082    -0.92900
O77         O  0.14895105  0.26609031  0.21640932    -0.91700
C78         C  0.19098912  0.17194851  0.22423766     1.17400
H79         H  0.23442376  0.26694392  0.26064249     0.33400
H80         H  0.18214387  0.26610331  0.16942717     0.44200
H81         H  0.24809798  0.18034266  0.19378409     0.37700
H82         H  0.29004771  0.27717874  0.16867552     0.34200
H83         H  0.16104327  0.32050200  0.22129191     0.26000
H84         H  0.24447392  0.29958265  0.10410471     0.31900
H85         H  0.29840374  0.24956455  0.12827462     0.37800
H86         H  0.18825440  0.26622122  0.27454175     0.32300
H87         H  0.23877109  0.19785444  0.29024825     0.31200
H88         H  0.26881743  0.16978884  0.25988382     0.32900
H89         H  0.29480250  0.16887783  0.18937622     0.31800
H90         H  0.14802442  0.25154153  0.20357115     0.35800
H91         H  0.15233176  0.20592298  0.16557185     0.28600
H92         H  0.30415197  0.32606806  0.23744786     0.32800
H93         H  0.33774764  0.22043461  0.16872187     0.35600
H94         H  0.22979139  0.22787060  0.28996204     0.28300
H95         H  0.16652320  0.18436722  0.14849985     0.41100
H96         H  0.19162955  0.31895564  0.15105303     0.31200
H97         H  0.18362247  0.32788361  0.20212709     0.38800
H98         H  0.30738145  0.18825843  0.20955968     0.30600
H99         H  0.27122573  0.28803758  0.11390976     0.30700
H100        H  0.32211937  0.30490480  0.22357574     0.31000
Zr101      Zr  0.71404450  0.28641834  0.21472866     2.17500
O102        O  0.70491458  0.33323690  0.22482376    -0.51400
O103        O  0.68213190  0.27275252  0.24738877    -0.74600
O104        O  0.67626023  0.30401544  0.19178852    -0.81400
O105        O  0.77568261  0.28960310  0.25799649    -0.83100
O106        O  0.67117909  0.28323186  0.15347188    -0.78700
O107        O  0.73695993  0.30994402  0.24872991    -0.90400
O108        O  0.68335908  0.22740782  0.25004348    -0.76300
O109        O  0.69400344  0.24787894  0.19617457    -0.85800
O110        O  0.73345416  0.24950271  0.23648785    -0.85500
O111        O  0.72465938  0.28863364  0.16978639    -0.72300
O112        O  0.76041812  0.28962211  0.20673823    -0.84400
Zr113      Zr  0.77010435  0.21420056  0.16518487     2.26400
Zr114      Zr  0.70542233  0.24895744  0.15145155     2.06300
Zr115      Zr  0.77975170  0.25193636  0.22801677     2.10000
Zr116      Zr  0.71348011  0.21103356  0.21785184     1.78800
O117        O  0.82273020  0.27341549  0.23029003    -0.93200
O118        O  0.67091607  0.19235860  0.20581881    -0.41000
O119        O  0.75991773  0.21254269  0.21005835    -0.77700
O120        O  0.72369975  0.21088518  0.17322531    -0.96300
O121        O  0.75165087  0.25138098  0.14318187    -0.89600
O122        O  0.79040083  0.25276438  0.18332201    -0.92500
C123        C  0.67475358  0.25031219  0.25724243     1.01300
C124        C  0.75841099  0.30809470  0.26155587     1.14200
C125        C  0.66451937  0.30081201  0.17025437     1.05000
O126        O  0.66301923  0.22847375  0.14196425    -0.94600
O127        O  0.70933217  0.21177482  0.12098291    -0.90400
O128        O  0.74875891  0.19245008  0.12907643    -0.83500
C129        C  0.72708357  0.19399390  0.11660154     1.11600
O130        O  0.76533218  0.33852243  0.16304072    -0.96600
Zr131      Zr  0.77110205  0.29001107  0.16209910     1.88900
O132        O  0.80282881  0.22796835  0.13367834    -0.73300
O133        O  0.70854601  0.27014396  0.10955117    -0.52500
O134        O  0.76201028  0.31054871  0.12068339    -0.97200
O135        O  0.81087266  0.31194706  0.17766755    -0.54400
O136        O  0.80339632  0.27341338  0.13197491    -0.73800
C137        C  0.81148402  0.25031721  0.12471898     0.98600
O138        O  0.78269574  0.16735567  0.15970045    -0.62600
O139        O  0.78163977  0.23276767  0.27088087    -0.57400
O140        O  0.80634710  0.19488572  0.18858179    -0.94100
O141        O  0.81288394  0.21623479  0.22637070    -0.92500
O142        O  0.72502565  0.18757091  0.25714717    -0.92900
O143        O  0.71570164  0.16258716  0.21267426    -0.91700
C144        C  0.81856434  0.19799912  0.20983586     1.17400
H145        H  0.73039524  0.25040078  0.25446166     0.33400
H146        H  0.71673380  0.19450411  0.16651796     0.44200
H147        H  0.80919917  0.25235413  0.18090268     0.37700
H148        H  0.71730553  0.30453795  0.16217409     0.34200
H149        H  0.65840558  0.20742719  0.20741119     0.26000
H150        H  0.69066011  0.26847543  0.10227198     0.31900
H151        H  0.76329966  0.29578769  0.10810199     0.37800
H152        H  0.72827417  0.20191464  0.26984120     0.32300
H153        H  0.78245391  0.21313603  0.26821675     0.31200
H154        H  0.82950531  0.26869363  0.24745563     0.32900
H155        H  0.82509480  0.29870891  0.17524334     0.31800
H156        H  0.73060570  0.15971022  0.20079465     0.35800
H157        H  0.76611131  0.15690186  0.15982738     0.28600
H158        H  0.68620436  0.33392776  0.23003310     0.32800
H159        H  0.78057360  0.34610910  0.15365075     0.35600
H160        H  0.79929603  0.23769684  0.27732314     0.28300
H161        H  0.78958216  0.16585812  0.14202298     0.41100
H162        H  0.65181100  0.23265258  0.15691861     0.31200
H163        H  0.67221476  0.18917499  0.18716411     0.38800
H164        H  0.80849103  0.31303342  0.19644847     0.30600
H165        H  0.71060660  0.28949740  0.11319784     0.30700
H166        H  0.70583337  0.34298278  0.20832447     0.31000
Zr167      Zr  0.71726113  0.70474730  0.21363018     2.17500
O168        O  0.71435648  0.65587005  0.21396506    -0.51400
O169        O  0.68407128  0.71046654  0.24676864    -0.74600
O170        O  0.73867341  0.68513379  0.25021650    -0.81400
O171        O  0.67389326  0.70491661  0.15336645    -0.83100
O172        O  0.77426521  0.70992321  0.26158060    -0.78700
O173        O  0.68241163  0.68280456  0.19046083    -0.90400
O174        O  0.67886647  0.75531558  0.25098067    -0.76300
O175        O  0.73089134  0.74266905  0.23780301    -0.85800
O176        O  0.69218205  0.74105725  0.19716776    -0.85500
O177        O  0.76383390  0.70823535  0.20683795    -0.72300
O178        O  0.72777886  0.70727544  0.16893100    -0.84400
Zr179      Zr  0.76297664  0.78655320  0.16928830     2.26400
Zr180      Zr  0.77724776  0.74727070  0.23048785     2.06300
Zr181      Zr  0.70294907  0.74444023  0.15257220     2.10000
Zr182      Zr  0.70645767  0.77903540  0.22083127     1.78800
O183        O  0.70215628  0.72653494  0.10927267    -0.93200
O184        O  0.71733425  0.79962134  0.26172038    -0.41000
O185        O  0.71655833  0.78311033  0.17622312    -0.77700
O186        O  0.75265037  0.78464087  0.21411903    -0.96300
O187        O  0.78811138  0.75040351  0.18595759    -0.89600
O188        O  0.74929707  0.74849524  0.14534967    -0.92500
C189        C  0.67362161  0.73104764  0.25734848     1.01300
C190        C  0.66999961  0.68549869  0.16928281     1.14200
C191        C  0.75853602  0.68976727  0.26458725     1.05000
O192        O  0.77931564  0.76614256  0.27341693    -0.94600
O193        O  0.80695766  0.78665184  0.22794020    -0.90400
O194        O  0.80050975  0.80709151  0.18951265    -0.83500
C195        C  0.81229874  0.80488344  0.21106464     1.11600
O196        O  0.77564534  0.66340151  0.16348714    -0.96600
Zr197      Zr  0.77419728  0.71229112  0.16234663     1.88900
O198        O  0.79727964  0.78051313  0.13751298    -0.73300
O199        O  0.82093838  0.72790390  0.23438557    -0.52500
O200        O  0.81726784  0.69658741  0.17610536    -0.97200
O201        O  0.76782280  0.69163391  0.12055588    -0.54400
O202        O  0.80497714  0.73581183  0.13469885    -0.73800
C203        C  0.80968376  0.76026786  0.12844956     0.98600
O204        O  0.76090629  0.83553734  0.16921447    -0.62600
O205        O  0.65805143  0.76101126  0.15037213    -0.57400
O206        O  0.74212118  0.80567441  0.13216281    -0.94100
O207        O  0.70419905  0.78351270  0.12327942    -0.92500
O208        O  0.66233337  0.79548687  0.21201403    -0.92900
O209        O  0.70173503  0.82756085  0.21933367    -0.91700
C210        C  0.72081341  0.80275542  0.11939891     1.17400
H211        H  0.67357491  0.73781480  0.19949165     0.33400
H212        H  0.75803633  0.80102216  0.22238495     0.44200
H213        H  0.75281898  0.75093490  0.12724800     0.37700
H214        H  0.77265548  0.69248051  0.21329494     0.34200
H215        H  0.70021310  0.80527137  0.26890906     0.26000
H216        H  0.83269025  0.74023293  0.22484433     0.31900
H217        H  0.82886519  0.71254224  0.17524294     0.37800
H218        H  0.65139037  0.77927618  0.20943231     0.32300
H219        H  0.65929172  0.77995752  0.15587503     0.31200
H220        H  0.71137509  0.70914822  0.11054154     0.32900
H221        H  0.76445875  0.70672807  0.10870601     0.31800
H222        H  0.71430978  0.83348042  0.20599562     0.35800
H223        H  0.74213495  0.84000229  0.16666249     0.28600
H224        H  0.70660508  0.65094236  0.23073570     0.32800
H225        H  0.79137642  0.65829090  0.15344908     0.35600
H226        H  0.65409698  0.76195132  0.13184393     0.28300
H227        H  0.76431337  0.84105964  0.18709102     0.41100
H228        H  0.77679344  0.78565281  0.27103856     0.31200
H229        H  0.72285160  0.78450138  0.27275291     0.38800
H230        H  0.75072417  0.68218070  0.12187401     0.30600
H231        H  0.82570031  0.73057787  0.25257856     0.30700
H232        H  0.73272208  0.64940791  0.21464145     0.31000
Zr233      Zr  0.26789034  0.71243316  0.21802492     2.17500
O234        O  0.27146774  0.66423697  0.22553665    -0.51400
O235        O  0.30176264  0.72177680  0.24976771    -0.74600
O236        O  0.30366581  0.69188341  0.19503180    -0.81400
O237        O  0.20953098  0.71556552  0.26539820    -0.83100
O238        O  0.30998772  0.71265952  0.15685795    -0.78700
O239        O  0.24549388  0.69197237  0.25341519    -0.90400
O240        O  0.31038005  0.76642741  0.24913851    -0.76300
O241        O  0.29139894  0.74919203  0.20016305    -0.85800
O242        O  0.25364068  0.75027604  0.24161428    -0.85500
O243        O  0.25573322  0.71212066  0.17365518    -0.72300
O244        O  0.22118458  0.71403188  0.21207783    -0.84400
Zr245      Zr  0.21837208  0.79115512  0.17365066     2.26400
Zr246      Zr  0.27867726  0.74992444  0.15599236     2.06300
Zr247      Zr  0.20722103  0.75283631  0.23537692     2.10000
Zr248      Zr  0.27651820  0.78723586  0.22343672     1.78800
O249        O  0.16353026  0.73548626  0.24511769    -0.93200
O250        O  0.31625662  0.80992214  0.20879481    -0.41000
O251        O  0.22991670  0.79081864  0.21800649    -0.77700
O252        O  0.26519579  0.78925629  0.17902905    -0.96300
O253        O  0.23232420  0.75315217  0.15008861    -0.89600
O254        O  0.19478769  0.75425667  0.19126273    -0.92500
C255        C  0.31463704  0.74254679  0.25720642     1.01300
C256        C  0.22556144  0.69590653  0.26786693     1.14200
C257        C  0.31535039  0.69435550  0.17343567     1.05000
O258        O  0.32235957  0.76723472  0.14616999    -0.94600
O259        O  0.27371160  0.78583862  0.12461401    -0.90400
O260        O  0.23554891  0.80749213  0.13373392    -0.83500
C261        C  0.25594271  0.80345710  0.11991159     1.11600
O262        O  0.21000259  0.66743359  0.16749891    -0.96600
Zr263      Zr  0.20918004  0.71629788  0.16782024     1.88900
O264        O  0.18392708  0.78377704  0.14250511    -0.73300
O265        O  0.27332315  0.72901947  0.11421559    -0.52500
O266        O  0.21549472  0.69802841  0.12500432    -0.97200
O267        O  0.16748698  0.69757034  0.18249439    -0.54400
O268        O  0.17874719  0.73874670  0.13911512    -0.73800
C269        C  0.17310475  0.76292840  0.13271259     0.98600
O270        O  0.21855721  0.84012771  0.17295687    -0.62600
O271        O  0.21202704  0.77393422  0.27711915    -0.57400
O272        O  0.18154731  0.81076916  0.19565051    -0.94100
O273        O  0.17563911  0.78944417  0.23366565    -0.92500
O274        O  0.27153096  0.80213310  0.26755925    -0.92900
O275        O  0.27213802  0.83583246  0.22502182    -0.91700
C276        C  0.16981506  0.80763412  0.21718483     1.17400
H277        H  0.25762655  0.74834306  0.25970734     0.33400
H278        H  0.27330738  0.80501836  0.17170756     0.44200
H279        H  0.17599231  0.75659022  0.18954123     0.37700
H280        H  0.26132092  0.69572117  0.16556016     0.34200
H281        H  0.32793415  0.81039465  0.22392651     0.26000
H282        H  0.28912570  0.73445898  0.10439440     0.31900
H283        H  0.21827873  0.71383181  0.11381330     0.37800
H284        H  0.25471624  0.81204703  0.26790171     0.32300
H285        H  0.20889226  0.79324015  0.27400532     0.31200
H286        H  0.15881248  0.74379871  0.26169495     0.32900
H287        H  0.15428057  0.70393932  0.17002130     0.31800
H288        H  0.27092847  0.84151712  0.20690071     0.35800
H289        H  0.21949496  0.84549396  0.19117588     0.28600
H290        H  0.28964045  0.66113662  0.23161932     0.32800
H291        H  0.19519005  0.66186624  0.15641348     0.35600
H292        H  0.19648166  0.76786187  0.28698660     0.28300
H293        H  0.23591455  0.84540365  0.16596547     0.41100
H294        H  0.32608958  0.76073443  0.12863519     0.31200
H295        H  0.32466171  0.79700485  0.19700962     0.38800
H296        H  0.16340980  0.70739371  0.19844491     0.30600
H297        H  0.27560465  0.70958382  0.11728209     0.30700
H298        H  0.27057338  0.65569877  0.20846559     0.31000
N299        N  0.28335789  0.95581357  0.94535397    -0.36700
N300        N  0.27792377  0.99707092  0.98451541    -0.57200
N301        N  0.28025439  0.03815575  0.94550996    -0.36700
N302        N  0.28504931  0.99674460  0.90653935    -0.57200
C303        C  0.27490877  0.94105454  0.96543271     0.26900
C304        C  0.27941312  0.94091017  0.92410061     0.26900
C305        C  0.27258001  0.05297164  0.96591454     0.26900
C306        C  0.27497187  0.05251809  0.92408936     0.26900
C307        C  0.28005303  0.97526389  0.99970962     0.35500
C308        C  0.27934276  0.01867115  0.00001836     0.35500
C309        C  0.29136380  0.97537302  0.89199329     0.35500
C310        C  0.28878810  0.01861749  0.89177316     0.35500
C311        C  0.26590261  0.91633322  0.95689390    -0.21900
C312        C  0.26864665  0.91629520  0.93076718    -0.21900
C313        C  0.26292108  0.07735173  0.95735025    -0.21900
C314        C  0.26427830  0.07699438  0.93099649    -0.21900
C315        C  0.28276446  0.98295131  0.02503287    -0.23000
C316        C  0.28226885  0.01045627  0.02525634    -0.23000
C317        C  0.29954318  0.98364417  0.86795563    -0.23000
C318        C  0.29784356  0.01110304  0.86777226    -0.23000
C319        C  0.27664369  0.94862173  0.99136058    -0.18300
C320        C  0.28613589  0.94862045  0.89895909    -0.18300
C321        C  0.28092847  0.04474634  0.89861220    -0.18300
C322        C  0.27505504  0.04542140  0.99202575    -0.18300
H323        H  0.25825276  0.89991181  0.96826697     0.14600
H324        H  0.26344024  0.89992623  0.91815736     0.14600
H325        H  0.25564790  0.09376390  0.96883508     0.14600
H326        H  0.25836177  0.09310290  0.91838055     0.14600
H327        H  0.28402501  0.97009009  0.04168996     0.12900
H328        H  0.28300664  0.02285372  0.04221163     0.12800
H329        H  0.30511096  0.97113410  0.85194442     0.12900
H330        H  0.30194512  0.02395547  0.85153708     0.12800
H331        H  0.29377404  0.97374765  0.94641461     0.26100
H332        H  0.29092944  0.02046548  0.94628208     0.26100
N333        N  0.99727062  0.24951997  0.98044907    -0.36700
N334        N  0.95653715  0.24777642  0.94131941    -0.57200
N335        N  0.99689327  0.25018384  0.90173316    -0.36700
N336        N  0.03734436  0.25591567  0.94090637    -0.57200
C337        C  0.97564369  0.25214542  0.99532863     0.26900
C338        C  0.01839599  0.25561243  0.99506352     0.26900
C339        C  0.97507841  0.25340157  0.88728162     0.26900
C340        C  0.01775494  0.25733833  0.88711999     0.26900
C341        C  0.94142122  0.24292694  0.96214356     0.35500
C342        C  0.94125522  0.24316128  0.92062523     0.35500
C343        C  0.05313217  0.25269975  0.96145396     0.35500
C344        C  0.05291570  0.25331297  0.92009278     0.35500
C345        C  0.98319966  0.25970044  0.01980127    -0.21900
C346        C  0.01016665  0.26178081  0.01964611    -0.21900
C347        C  0.98222473  0.26239232  0.86309934    -0.21900
C348        C  0.00913762  0.26484934  0.86299734    -0.21900
C349        C  0.91635414  0.23534441  0.95463126    -0.23000
C350        C  0.91625285  0.23548202  0.92834231    -0.23000
C351        C  0.07884661  0.24855750  0.95367392    -0.23000
C352        C  0.07869676  0.24881289  0.92749241    -0.23000
C353        C  0.94937953  0.24681710  0.98783294    -0.18300
C354        C  0.04498538  0.25433363  0.98722839    -0.18300
C355        C  0.04447037  0.25593865  0.89447023    -0.18300
C356        C  0.94897597  0.24748729  0.89490288    -0.18300
H357        H  0.97062527  0.26312684  0.03618920     0.14600
H358        H  0.02234348  0.26710367  0.03584078     0.14600
H359        H  0.96939854  0.26666758  0.84710916     0.14600
H360        H  0.02101744  0.27136085  0.84693369     0.14600
H361        H  0.89980061  0.23043322  0.96682322     0.12900
H362        H  0.89959503  0.23073550  0.91629053     0.12800
H363        H  0.09595260  0.24551325  0.96560584     0.12900
H364        H  0.09568723  0.24589434  0.91534826     0.12800
H365        H  0.99784486  0.24127212  0.96227330     0.26100
H366        H  0.99775854  0.24087478  0.91947011     0.26100
N367        N  0.69567749  0.99802540  0.98191430    -0.36700
N368        N  0.69332493  0.03935769  0.94226410    -0.57200
N369        N  0.69416594  0.99731942  0.90351632    -0.36700
N370        N  0.69275222  0.95601415  0.94304661    -0.57200
C371        C  0.69142110  0.02013836  0.99634483     0.26900
C372        C  0.69034324  0.97630746  0.99667998     0.26900
C373        C  0.68959305  0.01904282  0.88861159     0.26900
C374        C  0.68970984  0.97523617  0.88908942     0.26900
C375        C  0.69920974  0.05484335  0.96274442     0.35500
C376        C  0.69811114  0.05451864  0.92122510     0.35500
C377        C  0.69796856  0.94087580  0.96391942     0.35500
C378        C  0.69812452  0.94055900  0.92244425     0.35500
C379        C  0.68334795  0.01238921  0.02062014    -0.21900
C380        C  0.68260353  0.98474694  0.02081289    -0.21900
C381        C  0.68198014  0.01062754  0.86443352    -0.21900
C382        C  0.68214107  0.98299960  0.86471430    -0.21900
C383        C  0.70741181  0.08001085  0.95467197    -0.23000
C384        C  0.70669690  0.07981264  0.92842857    -0.23000
C385        C  0.70639026  0.91563087  0.95652712    -0.23000
C386        C  0.70645442  0.91542195  0.93026564    -0.23000
C387        C  0.69636305  0.04699174  0.98867534    -0.18300
C388        C  0.69431795  0.94916070  0.98956907    -0.18300
C389        C  0.69465682  0.94843788  0.89665519    -0.18300
C390        C  0.69435166  0.04611647  0.89557067    -0.18300
H391        H  0.67872653  0.02531533  0.03661242     0.14600
H392        H  0.67735265  0.97226370  0.03700821     0.14600
H393        H  0.67739486  0.02310518  0.84808478     0.14600
H394        H  0.67773856  0.97009489  0.84863700     0.14600
H395        H  0.71346251  0.09676453  0.96643456     0.12900
H396        H  0.71216034  0.09636726  0.91608624     0.12800
H397        H  0.71204390  0.89910198  0.96875820     0.12900
H398        H  0.71205956  0.89868406  0.91830806     0.12800
H399        H  0.70487016  0.99774366  0.96417244     0.26100
H400        H  0.70321509  0.99753982  0.92128368     0.26100
N401        N  0.03463994  0.78885831  0.94519170    -0.36700
N402        N  0.99444132  0.78807418  0.98514545    -0.57200
N403        N  0.95328206  0.79035101  0.94637953    -0.36700
N404        N  0.99349306  0.78828117  0.90640051    -0.57200
C405        C  0.04960757  0.78321389  0.96590982     0.26900
C406        C  0.04914583  0.78315263  0.92415159     0.26900
C407        C  0.93849896  0.78541700  0.96747694     0.26900
C408        C  0.93797643  0.78553385  0.92568242     0.26900
C409        C  0.01599022  0.79077293  0.00004883     0.35500
C410        C  0.97340101  0.79097314  0.00072593     0.35500
C411        C  0.01465917  0.79011386  0.89077699     0.35500
C412        C  0.97202003  0.79091706  0.89137406     0.35500
C413        C  0.07411774  0.77443106  0.95791144    -0.21900
C414        C  0.07379857  0.77432372  0.93161061    -0.21900
C415        C  0.91331006  0.77810975  0.96005321    -0.21900
C416        C  0.91295338  0.77829183  0.93375897    -0.21900
C417        C  0.00857560  0.79530656  0.02521881    -0.23000
C418        C  0.98163867  0.79551346  0.02562820    -0.23000
C419        C  0.00657232  0.79395457  0.86571745    -0.23000
C420        C  0.97961005  0.79436306  0.86608191    -0.23000
C421        C  0.04216183  0.78664807  0.99183170    -0.18300
C422        C  0.04108315  0.78617759  0.89836300    -0.18300
C423        C  0.94566483  0.78785526  0.89966810    -0.18300
C424        C  0.94686014  0.78761771  0.99328281    -0.18300
H425        H  0.09058300  0.76863573  0.96975416     0.14600
H426        H  0.08991557  0.76831505  0.91938012     0.14600
H427        H  0.89685175  0.77298123  0.97227977     0.14600
H428        H  0.89614874  0.77342045  0.92195309     0.14600
H429        H  0.02121128  0.79766250  0.04170940     0.12900
H430        H  0.96950750  0.79825118  0.04244844     0.12800
H431        H  0.01879625  0.79563976  0.84881693     0.12900
H432        H  0.96703226  0.79637443  0.84950868     0.12800
H433        H  0.01656860  0.79841376  0.94540215     0.26100
H434        H  0.97202439  0.79855751  0.94611735     0.26100
Zr435      Zr  0.21674322  0.79423657  0.71435725     2.17500
O436        O  0.21404830  0.84299809  0.71722752    -0.51400
O437        O  0.18501179  0.78607673  0.74842637    -0.74600
O438        O  0.17762388  0.81190603  0.69439169    -0.81400
O439        O  0.27583300  0.79099528  0.76002746    -0.83100
O440        O  0.17102338  0.79066448  0.65654672    -0.78700
O441        O  0.23909321  0.81444297  0.74982409    -0.90400
O442        O  0.17831632  0.74115125  0.74995285    -0.76300
O443        O  0.19311546  0.75702824  0.69772007    -0.85800
O444        O  0.23271891  0.75676253  0.73764861    -0.85500
O445        O  0.22679371  0.79400113  0.66945623    -0.72300
O446        O  0.26327985  0.79288694  0.70675288    -0.84400
Zr447      Zr  0.26546723  0.71611684  0.66813071     2.26400
Zr448      Zr  0.20390613  0.75546585  0.65303558     2.06300
Zr449      Zr  0.27894022  0.75416984  0.72931461     2.10000
Zr450      Zr  0.20924672  0.71963536  0.72100149     1.78800
O451        O  0.32202446  0.77396895  0.73691526    -0.93200
O452        O  0.16704602  0.69926167  0.71046915    -0.41000
O453        O  0.25556847  0.71621418  0.71291441    -0.77700
O454        O  0.21902922  0.71692677  0.67613947    -0.96300
O455        O  0.25005741  0.75379295  0.64480803    -0.89600
O456        O  0.28931150  0.75322172  0.68469390    -0.92500
C457        C  0.17364207  0.76513251  0.75759311     1.01300
C458        C  0.25951858  0.81031667  0.76354700     1.14200
C459        C  0.16515368  0.80846555  0.67335030     1.05000
O460        O  0.16076335  0.73527407  0.64692020    -0.94600
O461        O  0.20767903  0.71940234  0.62122597    -0.90400
O462        O  0.24555263  0.69770441  0.63068522    -0.83500
C463        C  0.22495892  0.70106953  0.61711141     1.11600
O464        O  0.27574821  0.83952846  0.66661993    -0.96600
Zr465      Zr  0.27320097  0.79102268  0.66203167     1.88900
O466        O  0.29727315  0.72425674  0.63428272    -0.73300
O467        O  0.20273239  0.77829994  0.61178278    -0.52500
O468        O  0.26273029  0.81479165  0.62263086    -0.97200
O469        O  0.31772177  0.80702311  0.67073865    -0.54400
O470        O  0.29968726  0.76938697  0.62957704    -0.73800
C471        C  0.30616305  0.74545672  0.62328871     0.98600
O472        O  0.26713450  0.66713073  0.66784643    -0.62600
O473        O  0.27841543  0.73011952  0.76994309    -0.57400
O474        O  0.30406533  0.69731521  0.68742550    -0.94100
O475        O  0.31170452  0.71829149  0.72521855    -0.92500
O476        O  0.22063033  0.70328134  0.76347247    -0.92900
O477        O  0.20959980  0.67083079  0.72199893    -0.91700
C478        C  0.31692584  0.70030821  0.70826702     1.17400
H479        H  0.22958202  0.75872243  0.75588452     0.33400
H480        H  0.21086787  0.70094372  0.66948151     0.44200
H481        H  0.30803572  0.75110380  0.68193996     0.37700
H482        H  0.22036997  0.81017896  0.66151908     0.34200
H483        H  0.15829022  0.69628910  0.72717682     0.26000
H484        H  0.18441085  0.77600675  0.60577336     0.31900
H485        H  0.25722486  0.80058595  0.61054472     0.37800
H486        H  0.20400780  0.69594330  0.77048567     0.32300
H487        H  0.29704735  0.72953583  0.77535090     0.31200
H488        H  0.32702814  0.76761135  0.75419356     0.32900
H489        H  0.32879139  0.80014856  0.65661084     0.31800
H490        H  0.21663812  0.66551298  0.70508988     0.35800
H491        H  0.26848598  0.66180914  0.68606356     0.28600
H492        H  0.19688124  0.84681055  0.72540487     0.32800
H493        H  0.26446931  0.84356740  0.68157285     0.35600
H494        H  0.26996524  0.74248735  0.78222407     0.28300
H495        H  0.24931789  0.66103420  0.66290620     0.41100
H496        H  0.16250300  0.71683052  0.65370785     0.31200
H497        H  0.15685922  0.71385492  0.70236961     0.38800
H498        H  0.32358739  0.79697062  0.68602497     0.30600
H499        H  0.20422471  0.79762226  0.61588704     0.30700
H500        H  0.21227704  0.84947537  0.69939186     0.31000
N501        N  0.98814642  0.96320051  0.63005854    -0.36700
N502        N  0.95242257  0.00827413  0.63599742    -0.57200
N503        N  0.99707490  0.04571889  0.63521372    -0.36700
N504        N  0.03264305  0.00058936  0.63193645    -0.57200
C505        C  0.96545322  0.95013380  0.63552832     0.26900
C506        C  0.00803241  0.94613206  0.63545872     0.26900
C507        C  0.97758947  0.06254046  0.64239967     0.26900
C508        C  0.02023626  0.05846580  0.63952182     0.26900
C509        C  0.93442424  0.98857262  0.63233904     0.35500
C510        C  0.93909951  0.03172471  0.63594866     0.35500
C511        C  0.04591771  0.97738970  0.62905509     0.35500
C512        C  0.05062352  0.02050997  0.63006980     0.35500
C513        C  0.97103554  0.92429973  0.64378334    -0.21900
C514        C  0.99783073  0.92178059  0.64369919    -0.21900
C515        C  0.98852054  0.08654395  0.65068045    -0.21900
C516        C  0.01536042  0.08395677  0.64889223    -0.21900
C517        C  0.90957648  0.99956538  0.62995683    -0.23000
C518        C  0.91250115  0.02682911  0.63242390    -0.23000
C519        C  0.07238920  0.98256148  0.62509219    -0.23000
C520        C  0.07535757  0.00986998  0.62559212    -0.23000
C521        C  0.93975117  0.96071813  0.63343409    -0.18300
C522        C  0.03520103  0.95162596  0.63315004    -0.18300
C523        C  0.04569795  0.04785230  0.63527889    -0.18300
C524        C  0.95019500  0.05734041  0.64084578    -0.18300
H525        H  0.95729555  0.90894898  0.64988162     0.14600
H526        H  0.00856678  0.90407954  0.64946654     0.14600
H527        H  0.97826821  0.10416781  0.65738092     0.14600
H528        H  0.02965344  0.09911701  0.65408315     0.14600
H529        H  0.89116116  0.98901303  0.62730083     0.12900
H530        H  0.89675393  0.04135214  0.63201068     0.12800
H531        H  0.08806591  0.96812019  0.62293343     0.12900
H532        H  0.09380893  0.02059640  0.62387521     0.12800
H533        H  0.98983794  0.98188840  0.62139495     0.26100
H534        H  0.99459700  0.02750671  0.62598172     0.26100
Zr535      Zr  0.27498489  0.28219709  0.66756674     2.17500
O536        O  0.31816841  0.30256379  0.66097294    -0.51400
O537        O  0.25617776  0.31329090  0.63674384    -0.74600
O538        O  0.29698068  0.26512217  0.62980560    -0.81400
O539        O  0.27331780  0.31918702  0.73208167    -0.83100
O540        O  0.28181555  0.22356266  0.61979591    -0.78700
O541        O  0.29108974  0.32016398  0.69213190    -0.90400
O542        O  0.21242196  0.30504653  0.63470139    -0.76300
O543        O  0.24034901  0.25913388  0.64629444    -0.85800
O544        O  0.23583838  0.29656965  0.68828212    -0.85500
O545        O  0.28446220  0.23526066  0.67272678    -0.72300
O546        O  0.28005005  0.26941702  0.71151649    -0.84400
Zr547      Zr  0.21483625  0.21220168  0.71631333     2.26400
Zr548      Zr  0.24877057  0.21220608  0.65189001     2.06300
Zr549      Zr  0.24031210  0.28297475  0.73208171     2.10000
Zr550      Zr  0.20135910  0.27275462  0.66757163     1.78800
O551        O  0.25889037  0.28591057  0.77488455    -0.93200
O552        O  0.17799691  0.25882930  0.62912373    -0.41000
O553        O  0.20545905  0.25914948  0.71127784    -0.77700
O554        O  0.20872403  0.22572046  0.67249125    -0.96300
O555        O  0.25397946  0.19830189  0.69559773    -0.89600
O556        O  0.24893276  0.23599712  0.73778346    -0.92500
C557        C  0.23328292  0.31718211  0.62716977     1.01300
C558        C  0.28892273  0.32918080  0.71505126     1.14200
C559        C  0.29688155  0.24392902  0.61590979     1.05000
O560        O  0.22931797  0.20945187  0.60941121    -0.94600
O561        O  0.21659354  0.17554657  0.65123206    -0.90400
O562        O  0.19870318  0.17476521  0.69103660    -0.83500
C563        C  0.20073376  0.16590571  0.66811784     1.11600
O564        O  0.33382172  0.23637349  0.71139193    -0.96600
Zr565      Zr  0.28813202  0.22248041  0.71663475     1.88900
O566        O  0.23440532  0.17978429  0.74584074    -0.73300
O567        O  0.27499983  0.17194750  0.64580361    -0.52500
O568        O  0.31244234  0.18415580  0.70020635    -0.97200
O569        O  0.30936577  0.23325195  0.75718597    -0.54400
O570        O  0.27845768  0.18621721  0.74582856    -0.73800
C571        C  0.25768362  0.17417331  0.75367992     0.98600
O572        O  0.17344060  0.19260496  0.73121346    -0.62600
O573        O  0.21463713  0.32384260  0.73662603    -0.57400
O574        O  0.18893512  0.23127093  0.75021421    -0.94100
O575        O  0.20463431  0.27212381  0.76184411    -0.92500
O576        O  0.17868512  0.31315317  0.68135280    -0.92900
O577        O  0.15483239  0.26432827  0.67528036    -0.91700
C578        C  0.18842200  0.25237718  0.76412013     1.17400
H579        H  0.23363045  0.31570509  0.68679888     0.33400
H580        H  0.19348794  0.21722000  0.66504390     0.44200
H581        H  0.24920573  0.23158009  0.75574701     0.37700
H582        H  0.30106157  0.23082610  0.66489379     0.34200
H583        H  0.16863340  0.27509803  0.62328056     0.26000
H584        H  0.27131356  0.16070109  0.66102944     0.31900
H585        H  0.32056957  0.19046374  0.68404572     0.37800
H586        H  0.16693721  0.31776030  0.66691892     0.32300
H587        H  0.19634067  0.31831752  0.73282510     0.31200
H588        H  0.25227343  0.30311214  0.78173774     0.32900
H589        H  0.31918374  0.21687403  0.76192750     0.31800
H590        H  0.15428800  0.25442999  0.69171529     0.35800
H591        H  0.16108041  0.19350317  0.71661045     0.28600
H592        H  0.31796252  0.31003903  0.64340505     0.32800
H593        H  0.34442508  0.22197885  0.71930652     0.35600
H594        H  0.21463730  0.32761386  0.75521926     0.28300
H595        H  0.17676017  0.17326302  0.73403393     0.41100
H596        H  0.21009536  0.20937756  0.61238863     0.31200
H597        H  0.19195716  0.25613564  0.61617154     0.38800
H598        H  0.29493377  0.23421496  0.76987330     0.30600
H599        H  0.26635360  0.16238222  0.63149581     0.30700
H600        H  0.33074679  0.28747544  0.66035317     0.31000
Zr601      Zr  0.71283340  0.28627536  0.66908330     2.17500
O602        O  0.70048642  0.33312816  0.66307869    -0.51400
O603        O  0.68095956  0.27209685  0.63686687    -0.74600
O604        O  0.73390494  0.30761068  0.63273151    -0.81400
O605        O  0.67043531  0.28478289  0.73010979    -0.83100
O606        O  0.77488738  0.29083290  0.62700741    -0.78700
O607        O  0.67698317  0.30623336  0.69226959    -0.90400
O608        O  0.68813965  0.22800950  0.62930466    -0.76300
O609        O  0.73414849  0.25074253  0.64733243    -0.85800
O610        O  0.69280617  0.24666463  0.68565078    -0.85500
O611        O  0.75857827  0.29133677  0.67952214    -0.72300
O612        O  0.72081863  0.28714497  0.71433238    -0.84400
Zr613      Zr  0.76875684  0.21481749  0.71916580     2.26400
Zr614      Zr  0.77973354  0.25478715  0.65817144     2.06300
Zr615      Zr  0.70150610  0.24690267  0.73078577     2.10000
Zr616      Zr  0.71468189  0.21109395  0.66417162     1.78800
O617        O  0.69467648  0.26329806  0.77415425    -0.93200
O618        O  0.73248341  0.18859995  0.62661790    -0.41000
O619        O  0.72274912  0.21016390  0.70943544    -0.77700
O620        O  0.76044451  0.21394502  0.67392631    -0.96300
O621        O  0.78832999  0.25488014  0.70322889    -0.89600
O622        O  0.74735058  0.25035526  0.74133463    -0.92500
C623        C  0.67684905  0.25034343  0.62432367     1.01300
C624        C  0.66514643  0.30345319  0.71378085     1.14200
C625        C  0.75617358  0.30698377  0.62125968     1.05000
O626        O  0.78601515  0.23709644  0.61521561    -0.94600
O627        O  0.81413160  0.22081944  0.65978374    -0.90400
O628        O  0.80683027  0.19754130  0.69655030    -0.83500
C629        C  0.81977979  0.20217049  0.67587229     1.11600
O630        O  0.76068155  0.33860906  0.71921093    -0.96600
Zr631      Zr  0.76643121  0.29040298  0.72477135     1.88900
O632        O  0.80098602  0.22878605  0.75083146    -0.73300
O633        O  0.82084922  0.27994072  0.65917988    -0.52500
O634        O  0.80676641  0.31591959  0.71800518    -0.97200
O635        O  0.74974550  0.30888469  0.76480644    -0.54400
O636        O  0.79867378  0.27393142  0.75516913    -0.73800
C637        C  0.80839967  0.25098370  0.76092071     0.98600
O638        O  0.78478674  0.16926834  0.72598238    -0.62600
O639        O  0.65874327  0.22487845  0.72924119    -0.57400
O640        O  0.74559860  0.19044861  0.75275875    -0.94100
O641        O  0.70594115  0.20933749  0.76082902    -0.92500
O642        O  0.67104120  0.19142475  0.66876783    -0.92900
O643        O  0.71643868  0.16267213  0.66995947    -0.91700
C644        C  0.72366130  0.19144724  0.76489866     1.17400
H645        H  0.67420820  0.24641044  0.68235579     0.33400
H646        H  0.76851250  0.19857053  0.66607051     0.44200
H647        H  0.74989126  0.24884426  0.75965266     0.37700
H648        H  0.76516166  0.30829054  0.67313210     0.34200
H649        H  0.71695226  0.18094913  0.61782619     0.26000
H650        H  0.82830872  0.27790594  0.64178555     0.31900
H651        H  0.82027171  0.30231464  0.71402891     0.37800
H652        H  0.66711424  0.18354987  0.65179609     0.32300
H653        H  0.66279110  0.20562311  0.72698737     0.31200
H654        H  0.67918333  0.25324127  0.78055253     0.32900
H655        H  0.75368292  0.29523044  0.77799880     0.31800
H656        H  0.73412976  0.15928081  0.67711576     0.35800
H657        H  0.79018523  0.16836321  0.74417528     0.28600
H658        H  0.69401007  0.33467010  0.64527284     0.32800
H659        H  0.76664353  0.34695261  0.73537923     0.35600
H660        H  0.65184059  0.22620286  0.74691702     0.28300
H661        H  0.76930609  0.15728834  0.72455768     0.41100
H662        H  0.80341279  0.24402777  0.60978866     0.31200
H663        H  0.73846775  0.20332248  0.61526351     0.38800
H664        H  0.73037420  0.30838419  0.76303358     0.30600
H665        H  0.81551174  0.29899307  0.66012394     0.30700
H666        H  0.71712293  0.34349383  0.66348069     0.31000
Zr667      Zr  0.72305927  0.71029303  0.66962715     2.17500
O668        O  0.72197152  0.66162906  0.66464973    -0.51400
O669        O  0.68956882  0.71838973  0.63719877    -0.74600
O670        O  0.68589270  0.68947780  0.69056325    -0.81400
O671        O  0.78446769  0.71149414  0.62579373    -0.83100
O672        O  0.67650725  0.71159686  0.72737326    -0.78700
O673        O  0.74647428  0.68962940  0.63497625    -0.90400
O674        O  0.68392947  0.76335796  0.63449576    -0.76300
O675        O  0.69860492  0.74762508  0.68466495    -0.85800
O676        O  0.73953419  0.74746860  0.64601781    -0.85500
O677        O  0.73145088  0.71164999  0.71478257    -0.72300
O678        O  0.76922473  0.71193173  0.67907509    -0.84400
Zr679      Zr  0.76966284  0.78993424  0.71600161     2.26400
Zr680      Zr  0.70731031  0.74979200  0.72971667     2.06300
Zr681      Zr  0.78545632  0.74976476  0.65550165     2.10000
Zr682      Zr  0.71586444  0.78500166  0.66169949     1.78800
O683        O  0.83071058  0.73401525  0.65476980    -0.93200
O684        O  0.67520421  0.80766088  0.67303704    -0.41000
O685        O  0.76170967  0.78777577  0.67083962    -0.77700
O686        O  0.72351572  0.78823384  0.70674023    -0.96300
O687        O  0.75316654  0.75281911  0.73958198    -0.89600
O688        O  0.79424517  0.75265777  0.70057748    -0.92500
C689        C  0.67812194  0.73925995  0.62811829     1.01300
C690        C  0.76772820  0.69244475  0.62207394     1.14200
C691        C  0.67262575  0.69244869  0.71121048     1.05000
O692        O  0.66318262  0.76812133  0.73334338    -0.94600
O693        O  0.70871944  0.78768999  0.75973250    -0.90400
O694        O  0.74827893  0.80796362  0.75356608    -0.83500
C695        C  0.72616794  0.80559685  0.76520941     1.11600
O696        O  0.77584970  0.66682348  0.72365069    -0.96600
Zr697      Zr  0.77734511  0.71562207  0.72422406     1.88900
O698        O  0.80320393  0.78319920  0.74864026    -0.73300
O699        O  0.70728479  0.73003097  0.77233342    -0.52500
O700        O  0.76417581  0.69829980  0.76595137    -0.97200
O701        O  0.82039762  0.69530326  0.71837901    -0.54400
O702        O  0.80622331  0.73827287  0.75447568    -0.73800
C703        C  0.81268873  0.76250411  0.75999649     0.98600
O704        O  0.76972760  0.83903135  0.71566001    -0.62600
O705        O  0.78709192  0.76484123  0.61117036    -0.57400
O706        O  0.80496176  0.81176190  0.69341406    -0.94100
O707        O  0.81146477  0.79127334  0.65512140    -0.92500
O708        O  0.72322837  0.80099270  0.61816695    -0.92900
O709        O  0.72152360  0.83351286  0.65978162    -0.91700
C710        C  0.81564115  0.81035075  0.67123426     1.17400
H711        H  0.73676112  0.74515333  0.62789351     0.33400
H712        H  0.71511218  0.80432434  0.71274345     0.44200
H713        H  0.81284020  0.75514587  0.70358260     0.37700
H714        H  0.72513952  0.69542665  0.72289535     0.34200
H715        H  0.66868892  0.81515186  0.65668238     0.26000
H716        H  0.68854043  0.72948481  0.77739796     0.31900
H717        H  0.78076755  0.69632801  0.77563918     0.37800
H718        H  0.70671101  0.81020634  0.61343564     0.32300
H719        H  0.78110020  0.78369452  0.61167887     0.31200
H720        H  0.83405441  0.72922868  0.63666756     0.32900
H721        H  0.82570644  0.68957176  0.73577735     0.31800
H722        H  0.74027863  0.83630950  0.65538971     0.35800
H723        H  0.76703018  0.84403128  0.69749815     0.28600
H724        H  0.70438215  0.65717548  0.65772303     0.32800
H725        H  0.76860267  0.66227617  0.70661845     0.35600
H726        H  0.80605716  0.76598962  0.60702860     0.28300
H727        H  0.75326341  0.84488795  0.72401282     0.41100
H728        H  0.66458155  0.78639194  0.72601403     0.31200
H729        H  0.66274329  0.79297766  0.67712704     0.38800
H730        H  0.83232497  0.71043402  0.71427944     0.30600
H731        H  0.71201399  0.71101664  0.76957255     0.30700
H732        H  0.72209284  0.65420086  0.68223652     0.31000
N733        N  0.48594775  0.45997682  0.74999303    -0.36700
N734        N  0.52976743  0.49831543  0.74710542    -0.57200
N735        N  0.49278486  0.54286611  0.74668127    -0.36700
N736        N  0.44916629  0.50472631  0.74687708    -0.57200
C737        C  0.50617758  0.44308999  0.74501181     0.26900
C738        C  0.46326181  0.44662567  0.74475321     0.26900
C739        C  0.51534908  0.55607026  0.74098442     0.26900
C740        C  0.47266864  0.55933676  0.74044912     0.26900
C741        C  0.54375706  0.47543155  0.74958781     0.35500
C742        C  0.54726660  0.51882390  0.74810924     0.35500
C743        C  0.43165001  0.48452945  0.74988941     0.35500
C744        C  0.43528574  0.52775585  0.74809868     0.35500
C745        C  0.49614519  0.41849095  0.73731444    -0.21900
C746        C  0.46917071  0.42073340  0.73712150    -0.21900
C747        C  0.50945502  0.58144006  0.73172587    -0.21900
C748        C  0.48259148  0.58345746  0.73131321    -0.21900
C749        C  0.57026107  0.48150279  0.75216377    -0.23000
C750        C  0.57246175  0.50893805  0.75124729    -0.23000
C751        C  0.40659713  0.49482563  0.75331272    -0.23000
C752        C  0.40890404  0.52218746  0.75215329    -0.23000
C753        C  0.53346530  0.44909349  0.74703682    -0.18300
C754        C  0.43732320  0.45700228  0.74668977    -0.18300
C755        C  0.44554933  0.55357858  0.74306150    -0.18300
C756        C  0.54121663  0.54618400  0.74403228    -0.18300
H757        H  0.50712551  0.40082406  0.73193414     0.14600
H758        H  0.45547489  0.40513841  0.73159653     0.14600
H759        H  0.52307723  0.59686810  0.72554641     0.14600
H760        H  0.47163403  0.60072196  0.72478856     0.14600
H761        H  0.58643908  0.46758170  0.75386498     0.12900
H762        H  0.59061768  0.52027802  0.75210602     0.12800
H763        H  0.38839822  0.48376104  0.75557668     0.12900
H764        H  0.39286876  0.53633498  0.75337636     0.12800
H765        H  0.48749690  0.47885176  0.75820046     0.26100
H766        H  0.49126249  0.52464644  0.75619263     0.26100
N767        N  0.44646293  0.49639218  0.13395244    -0.36700
N768        N  0.48823938  0.53618767  0.13532985    -0.57200
N769        N  0.52651126  0.49274209  0.13414044    -0.36700
N770        N  0.48439568  0.45282663  0.12971522    -0.57200
C771        C  0.43242595  0.51917189  0.13095576     0.26900
C772        C  0.43047746  0.47564995  0.12794659     0.26900
C773        C  0.54291738  0.51412169  0.13213846     0.26900
C774        C  0.54090713  0.47031434  0.13030794     0.26900
C775        C  0.46766945  0.55200260  0.14151873     0.35500
C776        C  0.51020053  0.55041304  0.14067711     0.35500
C777        C  0.46225472  0.43822777  0.13358398     0.35500
C778        C  0.50484214  0.43613655  0.13394426     0.35500
C779        C  0.40724472  0.51283761  0.12281010    -0.21900
C780        C  0.40601553  0.48535226  0.12090936    -0.21900
C781        C  0.56810258  0.50510404  0.12680828    -0.21900
C782        C  0.56686788  0.47751828  0.12583847    -0.21900
C783        C  0.47657998  0.57657631  0.15038003    -0.23000
C784        C  0.50349895  0.57556013  0.14989120    -0.23000
C785        C  0.46862416  0.41194913  0.13944271    -0.23000
C786        C  0.49558994  0.41059783  0.13961588    -0.23000
C787        C  0.44096322  0.54512933  0.13795513    -0.18300
C788        C  0.43635388  0.44824512  0.13165361    -0.18300
C789        C  0.53176861  0.44350697  0.13292706    -0.18300
C790        C  0.53626897  0.54131393  0.13700595    -0.18300
H791        H  0.39118291  0.52651489  0.11929998     0.14600
H792        H  0.38882568  0.47376044  0.11567459     0.14600
H793        H  0.58573118  0.51709020  0.12455752     0.14600
H794        H  0.58333741  0.46424143  0.12269482     0.14600
H795        H  0.46494776  0.59352301  0.15651104     0.12900
H796        H  0.51660555  0.59148283  0.15588678     0.12800
H797        H  0.45525391  0.39553048  0.14342015     0.12900
H798        H  0.50705488  0.39290200  0.14384790     0.12800
H799        H  0.46430342  0.49483008  0.14340961     0.26100
H800        H  0.50738434  0.49316500  0.14082584     0.26100
N801        N  0.78556299  0.49882214  0.48287528    -0.36700
N802        N  0.78901061  0.54047242  0.44439098    -0.57200
N803        N  0.78406103  0.49901564  0.40451431    -0.36700
N804        N  0.78436639  0.45733801  0.44287253    -0.57200
C805        C  0.79166329  0.52014039  0.49781745     0.26900
C806        C  0.78863252  0.47645111  0.49719086     0.26900
C807        C  0.78943365  0.52105967  0.39029258     0.26900
C808        C  0.78783578  0.47728065  0.38938270     0.26900
C809        C  0.78513954  0.55592621  0.46530184     0.35500
C810        C  0.78345630  0.55603666  0.42393684     0.35500
C811        C  0.77893184  0.44201905  0.46360224     0.35500
C812        C  0.77947311  0.44192397  0.42207920     0.35500
C813        C  0.79866099  0.51118366  0.52197922    -0.21900
C814        C  0.79661521  0.48364865  0.52163904    -0.21900
C815        C  0.79664951  0.51330346  0.36580837    -0.21900
C816        C  0.79571029  0.48570707  0.36524957    -0.21900
C817        C  0.77742282  0.58145820  0.45808290    -0.23000
C818        C  0.77633635  0.58152527  0.43188091    -0.23000
C819        C  0.77113708  0.41659523  0.45591047    -0.23000
C820        C  0.77135440  0.41658641  0.42967264    -0.23000
C821        C  0.78895737  0.54747208  0.49083391    -0.18300
C822        C  0.78228242  0.45000220  0.48940804    -0.18300
C823        C  0.78284815  0.45018563  0.39632043    -0.18300
C824        C  0.78578286  0.54798332  0.39812231    -0.18300
H825        H  0.80411756  0.52326468  0.53833246     0.14600
H826        H  0.80018900  0.47051586  0.53775182     0.14600
H827        H  0.80171069  0.52623260  0.34987616     0.14600
H828        H  0.80000959  0.47328475  0.34881722     0.14600
H829        H  0.77276083  0.59822492  0.47038190     0.12900
H830        H  0.77081697  0.59841925  0.42005393     0.12800
H831        H  0.76590756  0.39969099  0.46790828     0.12900
H832        H  0.76600807  0.39981479  0.41762581     0.12800
H833        H  0.77654144  0.49955331  0.46511270     0.26100
H834        H  0.77509702  0.49913193  0.42235819     0.26100
N835        N  0.53479050  0.71542877  0.44684088    -0.36700
N836        N  0.49271005  0.72383302  0.48391528    -0.57200
N837        N  0.45418020  0.72408277  0.44278050    -0.36700
N838        N  0.49624970  0.71869534  0.40559900    -0.57200
C839        C  0.54895014  0.72170804  0.46791728     0.26900
C840        C  0.55086086  0.71842487  0.42636105     0.26900
C841        C  0.43879742  0.73133935  0.46270551     0.26900
C842        C  0.44083809  0.72979228  0.42106711     0.26900
C843        C  0.51291042  0.72003961  0.50028215     0.35500
C844        C  0.47055438  0.72327328  0.49822204     0.35500
C845        C  0.51766829  0.71151311  0.39190801     0.35500
C846        C  0.47544277  0.71690637  0.38957094     0.35500
C847        C  0.57446030  0.72824873  0.46079413    -0.21900
C848        C  0.57566685  0.72618828  0.43456917    -0.21900
C849        C  0.41525218  0.74148865  0.45360128    -0.21900
C850        C  0.41659658  0.74066578  0.42733200    -0.21900
C851        C  0.50359204  0.71747733  0.52510461    -0.23000
C852        C  0.47675831  0.71946536  0.52379714    -0.23000
C853        C  0.51043382  0.70520327  0.36706514    -0.23000
C854        C  0.48370833  0.70856949  0.36560095    -0.23000
C855        C  0.53976890  0.72082612  0.49347743    -0.18300
C856        C  0.54393417  0.71364311  0.40054192    -0.18300
C857        C  0.44931525  0.72415487  0.39581105    -0.18300
C858        C  0.44491891  0.72793590  0.48888295    -0.18300
H859        H  0.59053508  0.73401675  0.47319074     0.14600
H860        H  0.59286664  0.73003128  0.42289381     0.14600
H861        H  0.39877071  0.74870167  0.46472111     0.14600
H862        H  0.40130727  0.74710910  0.41434749     0.14600
H863        H  0.51496572  0.71478334  0.54240217     0.12900
H864        H  0.46338457  0.71864687  0.53991021     0.12800
H865        H  0.52317405  0.69932276  0.35146240     0.12900
H866        H  0.47178573  0.70556063  0.34870756     0.12800
H867        H  0.51602593  0.70716847  0.44663103     0.26100
H868        H  0.47143191  0.71315469  0.44405341     0.26100
N869        N  0.20605812  0.46369004  0.44472670    -0.36700
N870        N  0.20263441  0.50504343  0.40614044    -0.57200
N871        N  0.20061405  0.54549412  0.44562685    -0.36700
N872        N  0.20510828  0.50418965  0.48437896    -0.57200
C873        C  0.21252102  0.44957687  0.42354780     0.26900
C874        C  0.21349836  0.44900812  0.46522590     0.26900
C875        C  0.20580266  0.56076819  0.42486793     0.26900
C876        C  0.20678843  0.56034829  0.46632460     0.26900
C877        C  0.19947124  0.48338410  0.39103715     0.35500
C878        C  0.19688022  0.52660062  0.39162007     0.35500
C879        C  0.20323576  0.48215605  0.49930516     0.35500
C880        C  0.20040609  0.52543533  0.49965921     0.35500
C881        C  0.22386778  0.42546428  0.43070826    -0.21900
C882        C  0.22451471  0.42512432  0.45701304    -0.21900
C883        C  0.21522019  0.58565762  0.43244229    -0.21900
C884        C  0.21574022  0.58543338  0.45866235    -0.21900
C885        C  0.19153868  0.49123434  0.36676820    -0.23000
C886        C  0.18984876  0.51868732  0.36717137    -0.23000
C887        C  0.19728219  0.48942953  0.52425055    -0.23000
C888        C  0.19551481  0.51693759  0.52447007    -0.23000
C889        C  0.20677782  0.45714999  0.39807222    -0.18300
C890        C  0.20930525  0.45592855  0.49112538    -0.18300
C891        C  0.20322166  0.55237843  0.49195340    -0.18300
C892        C  0.20099103  0.55329941  0.39934091    -0.18300
H893        H  0.23064616  0.40954472  0.41833417     0.14600
H894        H  0.23199197  0.40896825  0.46875251     0.14600
H895        H  0.22089742  0.60236922  0.42037632     0.14600
H896        H  0.22186849  0.60195224  0.47069299     0.14600
H897        H  0.18813694  0.47864934  0.35025111     0.12900
H898        H  0.18485112  0.53142183  0.35111837     0.12800
H899        H  0.19509305  0.47634333  0.54066642     0.12900
H900        H  0.19174179  0.52930794  0.54106640     0.12800
H901        H  0.19452160  0.48082315  0.44524495     0.26100
H902        H  0.19071789  0.52722743  0.44576462     0.26100
N903        N  0.49045196  0.23938359  0.48137324    -0.36700
N904        N  0.53089167  0.24046186  0.44185846    -0.57200
N905        N  0.49010307  0.24080774  0.40269058    -0.36700
N906        N  0.44991448  0.23553193  0.44206410    -0.57200
C907        C  0.51207302  0.23598707  0.49603791     0.26900
C908        C  0.46927660  0.23324839  0.49597729     0.26900
C909        C  0.51166858  0.23709663  0.38796850     0.26900
C910        C  0.46892026  0.23443533  0.38826183     0.26900
C911        C  0.54629994  0.24463179  0.46258529     0.35500
C912        C  0.54609274  0.24524488  0.42104443     0.35500
C913        C  0.43457507  0.23924670  0.46285507     0.35500
C914        C  0.43439350  0.23993093  0.42153920     0.35500
C915        C  0.50448651  0.22779379  0.52036745    -0.21900
C916        C  0.47747287  0.22612989  0.52033462    -0.21900
C917        C  0.50408276  0.22847654  0.36384948    -0.21900
C918        C  0.47710694  0.22674499  0.36405591    -0.21900
C919        C  0.57147527  0.25169963  0.45482197    -0.23000
C920        C  0.57135167  0.25201677  0.42857485    -0.23000
C921        C  0.40918966  0.24568454  0.45550244    -0.23000
C922        C  0.40910349  0.24621352  0.42931653    -0.23000
C923        C  0.53835660  0.24123422  0.48843867    -0.18300
C924        C  0.44273146  0.23574732  0.48841594    -0.18300
C925        C  0.44235403  0.23697335  0.39583822    -0.18300
C926        C  0.53792844  0.24242450  0.39528184    -0.18300
H927        H  0.51708112  0.22360573  0.53655119     0.14600
H928        H  0.46524546  0.22057242  0.53647673     0.14600
H929        H  0.51667627  0.22396631  0.34772110     0.14600
H930        H  0.46489770  0.22071356  0.34811258     0.14600
H931        H  0.58826120  0.25620334  0.46677517     0.12900
H932        H  0.58800413  0.25670030  0.41643533     0.12800
H933        H  0.39245310  0.24964260  0.46771954     0.12900
H934        H  0.39231125  0.25070589  0.41738783     0.12800
H935        H  0.48997781  0.24832484  0.46346070     0.26100
H936        H  0.48970454  0.25012252  0.42043137     0.26100
C937        C  0.60596397  0.67969648  0.55059815    -0.17900
C938        C  0.62541847  0.68228160  0.56938297    -0.20000
C939        C  0.63105043  0.70740756  0.58019568     0.20600
C940        C  0.61661785  0.73006861  0.57226293    -0.03000
C941        C  0.59706735  0.72749466  0.55327976    -0.06000
C942        C  0.59187245  0.70221118  0.54222609     0.20900
C943        C  0.58302410  0.75032571  0.54508152     0.19000
C944        C  0.58826767  0.77533751  0.55619062    -0.17500
C945        C  0.60756141  0.77785830  0.57502844    -0.19700
C946        C  0.62197129  0.75541655  0.58299868     0.20500
C947        C  0.64186328  0.75803051  0.60129114    -0.32700
C948        C  0.65672639  0.73568936  0.60910069     0.01200
C949        C  0.65102353  0.71034882  0.59856099    -0.24100
C950        C  0.57296271  0.70004901  0.52276906    -0.28700
C951        C  0.55933877  0.72285683  0.51436476     0.06900
C952        C  0.56422478  0.74782399  0.52569014    -0.27300
H953        H  0.60214050  0.66012544  0.54241236     0.11600
H954        H  0.63621983  0.66465064  0.57530210     0.12800
H955        H  0.57760147  0.79300847  0.55014364     0.11800
H956        H  0.61141083  0.79744226  0.58318070     0.11100
H957        H  0.64582924  0.77764852  0.60934087     0.16500
H958        H  0.66228203  0.69298048  0.60440395     0.12400
H959        H  0.56891959  0.68078593  0.51400635     0.15200
H960        H  0.55353600  0.76529704  0.51911835     0.15000
C961        C  0.74120987  0.58925672  0.56210983    -0.17900
C962        C  0.73789467  0.61004661  0.57960433    -0.20000
C963        C  0.75669829  0.63057741  0.58147771     0.20600
C964        C  0.77896414  0.63046939  0.56548735    -0.03000
C965        C  0.78218869  0.60954981  0.54754986    -0.06000
C966        C  0.76324922  0.58880740  0.54602977     0.20900
C967        C  0.80415431  0.60947218  0.53105504     0.19000
C968        C  0.82275659  0.63030834  0.53282257    -0.17500
C969        C  0.81971478  0.65090223  0.55089026    -0.19700
C970        C  0.79787774  0.65121326  0.56740226     0.20500
C971        C  0.79453549  0.67172732  0.58579097    -0.32700
C972        C  0.77230178  0.67172281  0.60198179     0.01200
C973        C  0.75348390  0.65108218  0.59926934    -0.24100
C974        C  0.76635366  0.56818790  0.52816558    -0.28700
C975        C  0.78787231  0.56811904  0.51140368     0.06900
C976        C  0.80682556  0.58874817  0.51294441    -0.27300
H977        H  0.72644746  0.57358443  0.56106693     0.11600
H978        H  0.72063355  0.61000263  0.59178144     0.12800
H979        H  0.83970244  0.63066017  0.52024588     0.11800
H980        H  0.83442165  0.66662556  0.55189546     0.11100
H981        H  0.80912069  0.68750877  0.58749306     0.16500
H982        H  0.73609828  0.65063091  0.61126810     0.12400
H983        H  0.75161924  0.55249486  0.52672336     0.15200
H984        H  0.82331801  0.58879703  0.49978994     0.15000
C985        C  0.62048165  0.61455241  0.68189983    -0.17900
C986        C  0.60309340  0.59334313  0.68669015    -0.20000
C987        C  0.59242228  0.58957108  0.71120257     0.20600
C988        C  0.59946143  0.60728567  0.73114728    -0.03000
C989        C  0.61701958  0.62875440  0.72628561    -0.06000
C990        C  0.62749022  0.63237736  0.70153828     0.20900
C991        C  0.62398984  0.64662084  0.74612886     0.19000
C992        C  0.61337228  0.64271276  0.77067987    -0.17500
C993        C  0.59584788  0.62154023  0.77547446    -0.19700
C994        C  0.58868070  0.60378392  0.75584017     0.20500
C995        C  0.57050975  0.58297148  0.76027061    -0.32700
C996        C  0.56315025  0.56562779  0.74034263     0.01200
C997        C  0.57439759  0.56878544  0.71597656    -0.24100
C998        C  0.64491012  0.65365501  0.69682625    -0.28700
C999        C  0.65229729  0.67153950  0.71649054     0.06900
C1000       C  0.64154769  0.66792829  0.74111339    -0.27300
H1001       H  0.62841442  0.61705510  0.66278459     0.11600
H1002       H  0.59787164  0.57997228  0.67117059     0.12800
H1003       H  0.61852944  0.65612719  0.78618029     0.11800
H1004       H  0.58778208  0.61913896  0.79454441     0.11100
H1005       H  0.56151742  0.58064016  0.77896748     0.16500
H1006       H  0.56834062  0.55559969  0.70057880     0.12400
H1007       H  0.65292089  0.65609909  0.67772438     0.15200
H1008       H  0.64724281  0.68131151  0.75647191     0.15000
C1009       C  0.81514207  0.36381455  0.56855164    -0.17900
C1010       C  0.81876696  0.38413151  0.55037616    -0.20000
C1011       C  0.79704870  0.39650880  0.53888864     0.20600
C1012       C  0.77138310  0.38835226  0.54577001    -0.03000
C1013       C  0.76774148  0.36767091  0.56390066    -0.06000
C1014       C  0.78973630  0.35536070  0.57537372     0.20900
C1015       C  0.74209941  0.35941760  0.57061537     0.19000
C1016       C  0.72034835  0.37183404  0.55919777    -0.17500
C1017       C  0.72394547  0.39242882  0.54133989    -0.19700
C1018       C  0.74935261  0.40084070  0.53453186     0.20500
C1019       C  0.75315081  0.42140719  0.51659214    -0.32700
C1020       C  0.77864428  0.42930759  0.50949486     0.01200
C1021       C  0.80051152  0.41682514  0.52059364    -0.24100
C1022       C  0.78593172  0.33500516  0.59362069    -0.28700
C1023       C  0.76040236  0.32688614  0.60060223     0.06900
C1024       C  0.73861921  0.33909759  0.58883657    -0.27300
H1025       H  0.83223227  0.35466853  0.57724502     0.11600
H1026       H  0.83857804  0.39021425  0.54534437     0.12800
H1027       H  0.70053554  0.36569601  0.56417441     0.11800
H1028       H  0.70685179  0.40176779  0.53283741     0.11100
H1029       H  0.73636367  0.43104158  0.50777416     0.16500
H1030       H  0.82013002  0.42295683  0.51488166     0.12400
H1031       H  0.80280775  0.32594587  0.60281273     0.15200
H1032       H  0.71885551  0.33293179  0.59402342     0.15000
C1033       C  0.59739320  0.28751418  0.58262967    -0.17900
C1034       C  0.57764501  0.28581161  0.56405037    -0.20000
C1035       C  0.57801227  0.26528199  0.54570378     0.20600
C1036       C  0.59852140  0.24629264  0.54606928    -0.03000
C1037       C  0.61849226  0.24807337  0.56476109    -0.06000
C1038       C  0.61789222  0.26874545  0.58317879     0.20900
C1039       C  0.63889636  0.22900226  0.56515348     0.19000
C1040       C  0.63936361  0.20855764  0.54672752    -0.17500
C1041       C  0.61956854  0.20675406  0.52826694    -0.19700
C1042       C  0.59903481  0.22543118  0.52783560     0.20500
C1043       C  0.57908192  0.22366086  0.50943355    -0.32700
C1044       C  0.55885600  0.24272239  0.50871334     0.01200
C1045       C  0.55833082  0.26341773  0.52695339    -0.24100
C1046       C  0.63751434  0.26999202  0.60207211    -0.28700
C1047       C  0.65752510  0.25058578  0.60303175     0.06900
C1048       C  0.65821904  0.23038505  0.58422845    -0.27300
H1049       H  0.59656772  0.30346629  0.59665470     0.11600
H1050       H  0.56203378  0.30052972  0.56407413     0.12800
H1051       H  0.65494797  0.19380958  0.54671812     0.11800
H1052       H  0.62029542  0.19070021  0.51434085     0.11100
H1053       H  0.57934471  0.20764496  0.49542783     0.16500
H1054       H  0.54267154  0.27809322  0.52636550     0.12400
H1055       H  0.63673088  0.28557091  0.61649147     0.15200
H1056       H  0.67367681  0.21548191  0.58460466     0.15000
C1057       C  0.61102329  0.37948285  0.68474925    -0.17900
C1058       C  0.59296052  0.39994671  0.68936523    -0.20000
C1059       C  0.58202436  0.40326537  0.71379170     0.20600
C1060       C  0.58940054  0.38580382  0.73383057    -0.03000
C1061       C  0.60772886  0.36508840  0.72915047    -0.06000
C1062       C  0.61849551  0.36199474  0.70449084     0.20900
C1063       C  0.61526082  0.34753103  0.74907004     0.19000
C1064       C  0.60438915  0.35106157  0.77356485    -0.17500
C1065       C  0.58617665  0.37158056  0.77821527    -0.19700
C1066       C  0.57845433  0.38902436  0.75847264     0.20500
C1067       C  0.56001698  0.40958933  0.76282208    -0.32700
C1068       C  0.55264545  0.42694595  0.74282270     0.01200
C1069       C  0.56381095  0.42371763  0.71845987    -0.24100
C1070       C  0.63665681  0.34156438  0.69988875    -0.28700
C1071       C  0.64455647  0.32386617  0.71951850     0.06900
C1072       C  0.63359496  0.32694498  0.74413745    -0.27300
H1073       H  0.61917090  0.37733575  0.66569298     0.11600
H1074       H  0.58750359  0.41316669  0.67379324     0.12800
H1075       H  0.60995197  0.33791939  0.78915588     0.11800
H1076       H  0.57809369  0.37377972  0.79728493     0.11100
H1077       H  0.55148426  0.41222249  0.78166357     0.16500
H1078       H  0.55817983  0.43720382  0.70313403     0.12400
H1079       H  0.64474658  0.33960535  0.68078404     0.15200
H1080       H  0.63958327  0.31366524  0.75947746     0.15000
C1081       C  0.34833740  0.19309125  0.55170027    -0.17900
C1082       C  0.36955767  0.19165291  0.53466742    -0.20000
C1083       C  0.38520506  0.21434609  0.52982566     0.20600
C1084       C  0.37913131  0.23885731  0.54191477    -0.03000
C1085       C  0.35766937  0.24032697  0.55895300    -0.06000
C1086       C  0.34235579  0.21727093  0.56410211     0.20900
C1087       C  0.35181716  0.26479550  0.57112551     0.19000
C1088       C  0.36699996  0.28767611  0.56581612    -0.17500
C1089       C  0.38821389  0.28624718  0.54890617    -0.19700
C1090       C  0.39459004  0.26190908  0.53709900     0.20500
C1091       C  0.41605159  0.26027925  0.52042802    -0.32700
C1092       C  0.42209559  0.23602480  0.50835845     0.01200
C1093       C  0.40669433  0.21310312  0.51300174    -0.24100
C1094       C  0.32175699  0.21868244  0.58198740    -0.28700
C1095       C  0.31641367  0.24284637  0.59486139     0.06900
C1096       C  0.33126009  0.26590018  0.58885157    -0.27300
H1097       H  0.33673870  0.17522340  0.55534274     0.11600
H1098       H  0.37384941  0.17273576  0.52542258     0.12800
H1099       H  0.36263154  0.30663227  0.57495943     0.11800
H1100       H  0.39976014  0.30413965  0.54520713     0.11100
H1101       H  0.42773334  0.27799176  0.51626041     0.16500
H1102       H  0.41124612  0.19455862  0.50317622     0.12400
H1103       H  0.31048065  0.20079089  0.58644444     0.15200
H1104       H  0.32726704  0.28471587  0.59843028     0.15000
C1105       C  0.17720455  0.37656718  0.53849943    -0.17900
C1106       C  0.18066209  0.35712460  0.55750331    -0.20000
C1107       C  0.20402389  0.35624918  0.57173746     0.20600
C1108       C  0.22440328  0.37464380  0.56633019    -0.03000
C1109       C  0.22086352  0.39436797  0.54726817    -0.06000
C1110       C  0.19700944  0.39551310  0.53350632     0.20900
C1111       C  0.24104003  0.41316840  0.54225217     0.19000
C1112       C  0.26481337  0.41155497  0.55572158    -0.17500
C1113       C  0.26835344  0.39192328  0.57454007    -0.19700
C1114       C  0.24815278  0.37361888  0.58023371     0.20500
C1115       C  0.25114140  0.35459112  0.59982820    -0.32700
C1116       C  0.23057200  0.33672816  0.60591175     0.01200
C1117       C  0.20719976  0.33752432  0.59149779    -0.24100
C1118       C  0.19333182  0.41574003  0.51519855    -0.28700
C1119       C  0.21311665  0.43483745  0.51070458     0.06900
C1120       C  0.23697661  0.43337387  0.52402840    -0.27300
H1121       H  0.15889937  0.37700504  0.52793894     0.11600
H1122       H  0.16493667  0.34294102  0.56126075     0.12800
H1123       H  0.28057962  0.42566741  0.55189046     0.11800
H1124       H  0.28678214  0.39128152  0.58488297     0.11100
H1125       H  0.26929581  0.35405923  0.61064650     0.16500
H1126       H  0.19134985  0.32360266  0.59568683     0.12400
H1127       H  0.17509204  0.41683389  0.50454706     0.15200
H1128       H  0.25230478  0.44797765  0.52010006     0.15000
C1129       C  0.34378666  0.40600930  0.68788568    -0.17900
C1130       C  0.36544248  0.42289082  0.69183979    -0.20000
C1131       C  0.37870232  0.42284276  0.71537427     0.20600
C1132       C  0.36948728  0.40625900  0.73542539    -0.03000
C1133       C  0.34754357  0.38921104  0.73143225    -0.06000
C1134       C  0.33500293  0.38873679  0.70738040     0.20900
C1135       C  0.33877890  0.37196617  0.75117738     0.19000
C1136       C  0.35155888  0.37262254  0.77499010    -0.17500
C1137       C  0.37318662  0.38961313  0.77899648    -0.19700
C1138       C  0.38258760  0.40619560  0.75923829     0.20500
C1139       C  0.40500081  0.42243900  0.76273368    -0.32700
C1140       C  0.41449657  0.43859529  0.74266720     0.01200
C1141       C  0.40114694  0.43885326  0.71912388    -0.24100
C1142       C  0.31469901  0.37018158  0.70284004    -0.28700
C1143       C  0.30663958  0.35192821  0.72195483     0.06900
C1144       C  0.31819315  0.35360115  0.74640075    -0.27300
H1145       H  0.33425673  0.40603558  0.66935571     0.11600
H1146       H  0.37210143  0.43566043  0.67631892     0.12800
H1147       H  0.34513304  0.35960153  0.79040737     0.11800
H1148       H  0.38286831  0.38941813  0.79744800     0.11100
H1149       H  0.41502711  0.42266039  0.78102133     0.16500
H1150       H  0.40827562  0.45165145  0.70380021     0.12400
H1151       H  0.30580074  0.36922546  0.68401785     0.15200
H1152       H  0.31228517  0.33955233  0.76119614     0.15000
C1153       C  0.85237882  0.89934176  0.69111528    -0.17900
C1154       C  0.86875985  0.92103873  0.68532995    -0.20000
C1155       C  0.88382896  0.92104703  0.66285147     0.20600
C1156       C  0.88184346  0.89930228  0.64565401    -0.03000
C1157       C  0.86519730  0.87741392  0.65146110    -0.06000
C1158       C  0.85074169  0.87736568  0.67446048     0.20900
C1159       C  0.86334083  0.85544967  0.63450021     0.19000
C1160       C  0.87798369  0.85580487  0.61171026    -0.17500
C1161       C  0.89476460  0.87737282  0.60608785    -0.19700
C1162       C  0.89698096  0.89911150  0.62302069     0.20500
C1163       C  0.91464776  0.92024476  0.61819070    -0.32700
C1164       C  0.91745200  0.94139208  0.63582134     0.01200
C1165       C  0.90155476  0.94194520  0.65778008    -0.24100
C1166       C  0.83501345  0.85528192  0.68060817    -0.28700
C1167       C  0.83312712  0.83305745  0.66405239     0.06900
C1168       C  0.84712523  0.83346380  0.64079164    -0.27300
H1169       H  0.84118575  0.89962394  0.70877277     0.11600
H1170       H  0.86996632  0.93762486  0.69864820     0.12800
H1171       H  0.87674469  0.83922132  0.59839438     0.11800
H1172       H  0.90621991  0.87692250  0.58860104     0.11100
H1173       H  0.92714710  0.91970483  0.60137912     0.16500
H1174       H  0.90398017  0.95802791  0.67152503     0.12400
H1175       H  0.82412084  0.85558476  0.69844679     0.15200
H1176       H  0.84559697  0.81667073  0.62773258     0.15000
C1177       C  0.87626065  0.15241701  0.61476291    -0.17900
C1178       C  0.89390612  0.13151131  0.60989574    -0.20000
C1179       C  0.90450310  0.11647885  0.63012522     0.20600
C1180       C  0.89759701  0.12289540  0.65555977    -0.03000
C1181       C  0.87975922  0.14393598  0.66045499    -0.06000
C1182       C  0.86883246  0.15864085  0.63995673     0.20900
C1183       C  0.87247090  0.14986676  0.68585879     0.19000
C1184       C  0.88353682  0.13534235  0.70614958    -0.17500
C1185       C  0.90128799  0.11462823  0.70132487    -0.19700
C1186       C  0.90819977  0.10803148  0.67611822     0.20500
C1187       C  0.92531942  0.08668211  0.67110078    -0.32700
C1188       C  0.93198765  0.08001951  0.64582966     0.01200
C1189       C  0.92170224  0.09503567  0.62542039    -0.24100
C1190       C  0.85015453  0.17873616  0.64501879    -0.28700
C1191       C  0.84200427  0.18390576  0.67030738     0.06900
C1192       C  0.85372690  0.16972577  0.69057592    -0.27300
H1193       H  0.86815980  0.16349773  0.59878113     0.11600
H1194       H  0.89909183  0.12694365  0.59026786     0.12800
H1195       H  0.87820631  0.13979111  0.72577058     0.11800
H1196       H  0.90937422  0.10354588  0.71731361     0.11100
H1197       H  0.93347302  0.07514078  0.68677976     0.16500
H1198       H  0.92703555  0.08986993  0.60595502     0.12400
H1199       H  0.84116960  0.18948560  0.62926776     0.15200
H1200       H  0.84780997  0.17374897  0.71013965     0.15000
C1201       C  0.13090178  0.13379088  0.61032584    -0.17900
C1202       C  0.10822352  0.11834103  0.60629968    -0.20000
C1203       C  0.09980961  0.09968907  0.62475592     0.20600
C1204       C  0.11447738  0.09656502  0.64749944    -0.03000
C1205       C  0.13738903  0.11210194  0.65152642    -0.06000
C1206       C  0.14564907  0.13082552  0.63284877     0.20900
C1207       C  0.15171483  0.10926259  0.67447667     0.19000
C1208       C  0.14332460  0.09066718  0.69297034    -0.17500
C1209       C  0.12077089  0.07515891  0.68891083    -0.19700
C1210       C  0.10616101  0.07805492  0.66633687     0.20500
C1211       C  0.08341739  0.06272466  0.66226993    -0.32700
C1212       C  0.06889569  0.06552982  0.63960547     0.01200
C1213       C  0.07705947  0.08408039  0.62092457    -0.24100
C1214       C  0.16795965  0.14686486  0.63743244    -0.28700
C1215       C  0.18166238  0.14485852  0.66072382     0.06900
C1216       C  0.17365292  0.12569407  0.67893595    -0.27300
H1217       H  0.13680853  0.14821628  0.59587786     0.11600
H1218       H  0.09719542  0.12106648  0.58877221     0.12800
H1219       H  0.15410131  0.08826660  0.71069141     0.11800
H1220       H  0.11465668  0.06099769  0.70351756     0.11100
H1221       H  0.07704404  0.04833080  0.67658866     0.16500
H1222       H  0.06585138  0.08607730  0.60340248     0.12400
H1223       H  0.17365877  0.16205552  0.62361001     0.15200
H1224       H  0.18398249  0.12429221  0.69702810     0.15000
C1225       C  0.16963162  0.65193196  0.55423028    -0.17900
C1226       C  0.16634661  0.63020356  0.53757293    -0.20000
C1227       C  0.18725959  0.61264375  0.53269462     0.20600
C1228       C  0.21183662  0.61719296  0.54441572    -0.03000
C1229       C  0.21516581  0.63914056  0.56104094    -0.06000
C1230       C  0.19391766  0.65652081  0.56620276     0.20900
C1231       C  0.23969231  0.64341336  0.57279355     0.19000
C1232       C  0.26075019  0.62612180  0.56771927    -0.17500
C1233       C  0.25748594  0.60444357  0.55120992    -0.19700
C1234       C  0.23309926  0.59971671  0.53964762     0.20500
C1235       C  0.22965176  0.57787773  0.52330479    -0.32700
C1236       C  0.20532031  0.57336787  0.51163137     0.01200
C1237       C  0.18417684  0.59070502  0.51621634    -0.24100
C1238       C  0.19720747  0.67769700  0.58371681    -0.28700
C1239       C  0.22147505  0.68147237  0.59608578     0.06900
C1240       C  0.24270169  0.66454621  0.58992482    -0.27300
H1241       H  0.15311088  0.66502429  0.55790640     0.11600
H1242       H  0.14738707  0.62702001  0.52864464     0.12800
H1243       H  0.27969541  0.62923221  0.57671220     0.11800
H1244       H  0.27397365  0.59126939  0.54762658     0.11100
H1245       H  0.24600804  0.56470711  0.51907354     0.16500
H1246       H  0.16559443  0.58728708  0.50660824     0.12400
H1247       H  0.18074649  0.69055291  0.58833806     0.15200
H1248       H  0.26165791  0.66729642  0.59902740     0.15000
C1249       C  0.39462250  0.78260321  0.55003907    -0.17900
C1250       C  0.37490605  0.78503829  0.56849358    -0.20000
C1251       C  0.35966723  0.76272277  0.57555472     0.20600
C1252       C  0.36409496  0.73772056  0.56380225    -0.03000
C1253       C  0.38377203  0.73533475  0.54490029    -0.06000
C1254       C  0.39920506  0.75788443  0.53815066     0.20900
C1255       C  0.38814405  0.71039466  0.53292087     0.19000
C1256       C  0.37287523  0.68808493  0.54004378    -0.17500
C1257       C  0.35356189  0.69039106  0.55903820    -0.19700
C1258       C  0.34904364  0.71510406  0.57108164     0.20500
C1259       C  0.32994730  0.71760176  0.59040727    -0.32700
C1260       C  0.32555830  0.74252902  0.60229101     0.01200
C1261       C  0.34033141  0.76499544  0.59444111    -0.24100
C1262       C  0.41903937  0.75529488  0.51973212    -0.28700
C1263       C  0.42338467  0.73058166  0.50778119     0.06900
C1264       C  0.40786442  0.70823243  0.51423045    -0.27300
H1265       H  0.40629542  0.80006641  0.54506147     0.11600
H1266       H  0.37172004  0.80435449  0.57741605     0.12800
H1267       H  0.37600307  0.66879610  0.53105265     0.11800
H1268       H  0.34218820  0.67282694  0.56434191     0.11100
H1269       H  0.31855417  0.70019575  0.59617190     0.16500
H1270       H  0.33723737  0.78429099  0.60345739     0.12400
H1271       H  0.43119941  0.77240367  0.51466420     0.15200
H1272       H  0.41146380  0.68917730  0.50492923     0.15000
C1273       C  0.38384309  0.59979900  0.68532071    -0.17900
C1274       C  0.36675559  0.62099825  0.68014422    -0.20000
C1275       C  0.36211578  0.64083393  0.69862766     0.20600
C1276       C  0.37515058  0.63966220  0.72236002    -0.03000
C1277       C  0.39258705  0.61837619  0.72751678    -0.06000
C1278       C  0.39671354  0.59821624  0.70898676     0.20900
C1279       C  0.40573612  0.61717784  0.75125631     0.19000
C1280       C  0.40148008  0.63734477  0.76947894    -0.17500
C1281       C  0.38394310  0.65827378  0.76446815    -0.19700
C1282       C  0.37051154  0.65953541  0.74105462     0.20500
C1283       C  0.35215464  0.67996291  0.73620952    -0.32700
C1284       C  0.33849177  0.68081442  0.71282209     0.01200
C1285       C  0.34418763  0.66145374  0.69394664    -0.24100
C1286       C  0.41367053  0.57688430  0.71445147    -0.28700
C1287       C  0.42673034  0.57563124  0.73805528     0.06900
C1288       C  0.42285975  0.59582688  0.75633069    -0.27300
H1289       H  0.38691748  0.58458898  0.67084903     0.11600
H1290       H  0.35691086  0.62170417  0.66178084     0.12800
H1291       H  0.41154174  0.63679725  0.78772964     0.11800
H1292       H  0.38076111  0.67339847  0.77899258     0.11100
H1293       H  0.34805247  0.69472897  0.75086231     0.16500
H1294       H  0.33407608  0.66185993  0.67570565     0.12400
H1295       H  0.41699796  0.56135245  0.70032487     0.15200
H1296       H  0.43322107  0.59482789  0.77441943     0.15000
C1297       C  0.10755249  0.88234645  0.70082402    -0.17900
C1298       C  0.09015611  0.90305539  0.69492450    -0.20000
C1299       C  0.08051811  0.90597972  0.66995295     0.20600
C1300       C  0.08809102  0.88763231  0.65078579    -0.03000
C1301       C  0.10582619  0.86687562  0.65669980    -0.06000
C1302       C  0.11573565  0.86439607  0.68178344     0.20900
C1303       C  0.11397387  0.84892123  0.63743048     0.19000
C1304       C  0.10379939  0.85148662  0.61259651    -0.17500
C1305       C  0.08596065  0.87188977  0.60678613    -0.19700
C1306       C  0.07817984  0.89020502  0.62565938     0.20500
C1307       C  0.06081881  0.91114623  0.61987789    -0.32700
C1308       C  0.05369567  0.92960090  0.63885095     0.01200
C1309       C  0.06349626  0.92696566  0.66378284    -0.24100
C1310       C  0.13417967  0.84446033  0.68726810    -0.28700
C1311       C  0.14322971  0.82710160  0.66795492     0.06900
C1312       C  0.13260259  0.82913354  0.64317955    -0.27300
H1313       H  0.11490690  0.88060232  0.72020449     0.11600
H1314       H  0.08435775  0.91688297  0.70985865     0.12800
H1315       H  0.10979621  0.83782373  0.59760225     0.11800
H1316       H  0.07846928  0.87352297  0.58745042     0.11100
H1317       H  0.05295291  0.91326710  0.60071385     0.16500
H1318       H  0.05765950  0.94124161  0.67833957     0.12400
H1319       H  0.14201167  0.84297362  0.70650162     0.15200
H1320       H  0.13943156  0.81591556  0.62814544     0.15000
C1321       C  0.10064711  0.72946602  0.81035162    -0.17900
C1322       C  0.08213052  0.73237467  0.82994517    -0.20000
C1323       C  0.08102916  0.75613000  0.84422795     0.20600
C1324       C  0.09894844  0.77710649  0.83888964    -0.03000
C1325       C  0.11753409  0.77423584  0.81894561    -0.06000
C1326       C  0.11829089  0.75032015  0.80459095     0.20900
C1327       C  0.13525676  0.79528575  0.81332642     0.19000
C1328       C  0.13457452  0.81879357  0.82808910    -0.17500
C1329       C  0.11625521  0.82158690  0.84795620    -0.19700
C1330       C  0.09822334  0.80096472  0.85338768     0.20500
C1331       C  0.07941108  0.80376702  0.87293529    -0.32700
C1332       C  0.06128497  0.78308683  0.87796346     0.01200
C1333       C  0.06227864  0.75929962  0.86368383    -0.24100
C1334       C  0.13660172  0.74763006  0.78467447    -0.28700
C1335       C  0.15413116  0.76860965  0.77857914     0.06900
C1336       C  0.15331019  0.79242895  0.79307672    -0.27300
H1337       H  0.10106445  0.71092574  0.79958321     0.11600
H1338       H  0.06861430  0.71604186  0.83389121     0.12800
H1339       H  0.14817230  0.83507614  0.82421884     0.11800
H1340       H  0.11609028  0.83996411  0.85898254     0.11100
H1341       H  0.07863816  0.82204202  0.88411121     0.16500
H1342       H  0.04836428  0.74333452  0.86777672     0.12400
H1343       H  0.13702136  0.72918222  0.77374187     0.15200
H1344       H  0.16691952  0.80861324  0.78882608     0.15000
C1345       C  0.87480022  0.72551490  0.82385171    -0.17900
C1346       C  0.89322284  0.72903012  0.84341987    -0.20000
C1347       C  0.89970467  0.75483445  0.85204540     0.20600
C1348       C  0.88718831  0.77733535  0.84112717    -0.03000
C1349       C  0.86861598  0.77377250  0.82129346    -0.06000
C1350       C  0.86255771  0.74774672  0.81252351     0.20900
C1351       C  0.85625449  0.79622862  0.81016418     0.19000
C1352       C  0.86222533  0.82200218  0.81932977    -0.17500
C1353       C  0.88060449  0.82554437  0.83899606    -0.19700
C1354       C  0.89337257  0.80338517  0.84987566     0.20500
C1355       C  0.91232232  0.80676402  0.86918769    -0.32700
C1356       C  0.92508884  0.78441114  0.87974143     0.01200
C1357       C  0.91861040  0.75854229  0.87124393    -0.24100
C1358       C  0.84443647  0.74434736  0.79254284    -0.28700
C1359       C  0.83215721  0.76660246  0.78100068     0.06900
C1360       C  0.83820200  0.79252785  0.79006925    -0.27300
H1361       H  0.87024261  0.70537588  0.81745796     0.11600
H1362       H  0.90252151  0.71154968  0.85171428     0.12800
H1363       H  0.85276901  0.83946857  0.81118502     0.11800
H1364       H  0.88495540  0.84565839  0.84558939     0.11100
H1365       H  0.91737012  0.82668789  0.87587804     0.16500
H1366       H  0.92846226  0.74137116  0.87955817     0.12400
H1367       H  0.83998229  0.72424883  0.78594331     0.15200
H1368       H  0.82879094  0.80985657  0.78159375     0.15000
C1369       C  0.75679690  0.88161963  0.81768398    -0.17900
C1370       C  0.75221439  0.90214229  0.83527688    -0.20000
C1371       C  0.72739054  0.90505438  0.84659291     0.20600
C1372       C  0.70688211  0.88719214  0.84000728    -0.03000
C1373       C  0.71145939  0.86658361  0.82199301    -0.06000
C1374       C  0.73657082  0.86379063  0.81093839     0.20900
C1375       C  0.69097670  0.84884313  0.81504667     0.19000
C1376       C  0.66609052  0.85191253  0.82634436    -0.17500
C1377       C  0.66163261  0.87212025  0.84448155    -0.19700
C1378       C  0.68189104  0.88985833  0.85148469     0.20500
C1379       C  0.67775199  0.91009352  0.86982435    -0.32700
C1380       C  0.69821254  0.92783507  0.87638757     0.01200
C1381       C  0.72283610  0.92535400  0.86456305    -0.24100
C1382       C  0.74109197  0.84338701  0.79314183    -0.28700
C1383       C  0.72082883  0.82567650  0.78568678     0.06900
C1384       C  0.69574378  0.82852714  0.79685926    -0.27300
H1385       H  0.77618389  0.87974173  0.80927539     0.11600
H1386       H  0.76814633  0.91567276  0.84013155     0.12800
H1387       H  0.65007419  0.83859722  0.82123443     0.11800
H1388       H  0.64229886  0.87389497  0.85301427     0.11100
H1389       H  0.65878233  0.91202405  0.87909432     0.16500
H1390       H  0.73857655  0.93898660  0.86980779     0.12400
H1391       H  0.76054513  0.84158469  0.78484369     0.15200
H1392       H  0.67989566  0.81524204  0.79118987     0.15000
C1393       C  0.74918023  0.10573016  0.80585313    -0.17900
C1394       C  0.74465756  0.08501313  0.82342259    -0.20000
C1395       C  0.72271020  0.08568022  0.83969061     0.20600
C1396       C  0.70495867  0.10732214  0.83802482    -0.03000
C1397       C  0.70945565  0.12819989  0.82012988    -0.06000
C1398       C  0.73174749  0.12742398  0.80410520     0.20900
C1399       C  0.69179779  0.14991421  0.81843525     0.19000
C1400       C  0.66982942  0.15052291  0.83474134    -0.17500
C1401       C  0.66548004  0.12996322  0.85260964    -0.19700
C1402       C  0.68294595  0.10830709  0.85447085     0.20500
C1403       C  0.67910484  0.08790360  0.87276528    -0.32700
C1404       C  0.69701075  0.06655787  0.87478350     0.01200
C1405       C  0.71853217  0.06539899  0.85794379    -0.24100
C1406       C  0.73627562  0.14829758  0.78657693    -0.28700
C1407       C  0.71869244  0.17002565  0.78441207     0.06900
C1408       C  0.69643758  0.17060716  0.80053245    -0.27300
H1409       H  0.76638916  0.10481237  0.79364969     0.11600
H1410       H  0.75848354  0.06857381  0.82444977     0.12800
H1411       H  0.65606034  0.16701195  0.83378595     0.11800
H1412       H  0.64849470  0.13108324  0.86508619     0.11100
H1413       H  0.66251849  0.08880263  0.88577835     0.16500
H1414       H  0.73239135  0.04902110  0.85958768     0.12400
H1415       H  0.75349089  0.14737352  0.77438529     0.15200
H1416       H  0.68275015  0.18714946  0.79920667     0.15000
C1417       C  0.88430743  0.20589566  0.80224898    -0.17900
C1418       C  0.90404145  0.20546833  0.82092901    -0.20000
C1419       C  0.90668266  0.22673483  0.83832463     0.20600
C1420       C  0.88942029  0.24878134  0.83669506    -0.03000
C1421       C  0.86963114  0.24927847  0.81776297    -0.06000
C1422       C  0.86691651  0.22764958  0.80056921     0.20900
C1423       C  0.85242926  0.27134707  0.81621447     0.19000
C1424       C  0.85510354  0.29265437  0.83351718    -0.17500
C1425       C  0.87458639  0.29210900  0.85232699    -0.19700
C1426       C  0.89177357  0.27027814  0.85411420     0.20500
C1427       C  0.91116876  0.26952716  0.87310340    -0.32700
C1428       C  0.92827119  0.24762394  0.87489393     0.01200
C1429       C  0.92612325  0.22634932  0.85740824    -0.24100
C1430       C  0.84679281  0.22814399  0.78213058    -0.28700
C1431       C  0.82955389  0.25016937  0.78047378     0.06900
C1432       C  0.83270213  0.27171790  0.79753644    -0.27300
H1433       H  0.88258636  0.18915009  0.78916703     0.11600
H1434       H  0.91713462  0.18841075  0.82187590     0.12800
H1435       H  0.84200501  0.30970863  0.83259462     0.11800
H1436       H  0.87615089  0.30874441  0.86555304     0.11100
H1437       H  0.91310142  0.28598162  0.88651709     0.16500
H1438       H  0.93951372  0.20955235  0.85881215     0.12400
H1439       H  0.84470897  0.21151448  0.76894452     0.15200
H1440       H  0.81951462  0.28871169  0.79653498     0.15000
C1441       C  0.14327507  0.29703371  0.83665759    -0.17900
C1442       C  0.12293106  0.29763205  0.85470341    -0.20000
C1443       C  0.10390401  0.27719381  0.85533541     0.20600
C1444       C  0.10548121  0.25580826  0.83776368    -0.03000
C1445       C  0.12610764  0.25510208  0.81973662    -0.06000
C1446       C  0.14504302  0.27588329  0.81907097     0.20900
C1447       C  0.12779037  0.23355384  0.80243771     0.19000
C1448       C  0.10892137  0.21296808  0.80315451    -0.17500
C1449       C  0.08840993  0.21373294  0.82091353    -0.19700
C1450       C  0.08654652  0.23502034  0.83829308     0.20500
C1451       C  0.06630385  0.23568150  0.85643127    -0.32700
C1452       C  0.06483023  0.25673324  0.87412043     0.01200
C1453       C  0.08347986  0.27757653  0.87336780    -0.24100
C1454       C  0.16540881  0.27510120  0.80089216    -0.28700
C1455       C  0.16722846  0.25360425  0.78360097     0.06900
C1456       C  0.14828966  0.23290593  0.78465954    -0.27300
H1457       H  0.15767755  0.31308742  0.83650573     0.11600
H1458       H  0.12207114  0.31410078  0.86816971     0.12800
H1459       H  0.11002443  0.19626882  0.78995962     0.11800
H1460       H  0.07407111  0.19761579  0.82113271     0.11100
H1461       H  0.05194221  0.21957741  0.85721283     0.16500
H1462       H  0.08227203  0.29374680  0.88715791     0.12400
H1463       H  0.17982474  0.29114364  0.80028045     0.15200
H1464       H  0.14927833  0.21618586  0.77150140     0.15000
C1465       C  0.22144261  0.10438672  0.81213884    -0.17900
C1466       C  0.22462281  0.08684806  0.83287070    -0.20000
C1467       C  0.24923227  0.08401964  0.84468223     0.20600
C1468       C  0.27093213  0.09878616  0.83532090    -0.03000
C1469       C  0.26773842  0.11636915  0.81432492    -0.06000
C1470       C  0.24283185  0.11936384  0.80278643     0.20900
C1471       C  0.28939171  0.13128922  0.80519704     0.19000
C1472       C  0.31405146  0.12834286  0.81686163    -0.17500
C1473       C  0.31722127  0.11095293  0.83762960    -0.19700
C1474       C  0.29578516  0.09622235  0.84710595     0.20500
C1475       C  0.29875031  0.07904199  0.86818341    -0.32700
C1476       C  0.27723100  0.06435873  0.87754089     0.01200
C1477       C  0.25256560  0.06677620  0.86570493    -0.24100
C1478       C  0.23965773  0.13768221  0.78250263    -0.28700
C1479       C  0.26108791  0.15312563  0.77365251     0.06900
C1480       C  0.28596809  0.14935800  0.78493160    -0.27300
H1481       H  0.20217744  0.10641105  0.80355772     0.11600
H1482       H  0.20776297  0.07565500  0.83980972     0.12800
H1483       H  0.33086625  0.13970823  0.81007126     0.11800
H1484       H  0.33641792  0.10917678  0.84640736     0.11100
H1485       H  0.31781008  0.07675792  0.87716638     0.16500
H1486       H  0.23610147  0.05507512  0.87282728     0.12400
H1487       H  0.22042980  0.14023855  0.77395425     0.15200
H1488       H  0.30270250  0.16103488  0.77841641     0.15000
C1489       C  0.31507902  0.85063055  0.83166588    -0.17900
C1490       C  0.31898814  0.87039418  0.85031433    -0.20000
C1491       C  0.29954940  0.88966609  0.85511396     0.20600
C1492       C  0.27586769  0.88892222  0.84107519    -0.03000
C1493       C  0.27185801  0.86889204  0.82248014    -0.06000
C1494       C  0.29161108  0.84972308  0.81758798     0.20900
C1495       C  0.24800781  0.86804097  0.80885054     0.19000
C1496       C  0.22834256  0.88695686  0.81386848    -0.17500
C1497       C  0.23237494  0.90689893  0.83212991    -0.19700
C1498       C  0.25604664  0.90807088  0.84575365     0.20500
C1499       C  0.26006737  0.92784592  0.86424006    -0.32700
C1500       C  0.28341741  0.92852114  0.87837251     0.01200
C1501       C  0.30313908  0.90948263  0.87386809    -0.24100
C1502       C  0.28755770  0.83015833  0.79862103    -0.28700
C1503       C  0.26396028  0.82962575  0.78460959     0.06900
C1504       C  0.24419114  0.84842593  0.79025424    -0.27300
H1505       H  0.33040789  0.83603252  0.82827566     0.11600
H1506       H  0.33722654  0.87060720  0.86098743     0.12800
H1507       H  0.20986922  0.88639239  0.80358144     0.11800
H1508       H  0.21694081  0.92134762  0.83566998     0.11100
H1509       H  0.24485358  0.94248218  0.86809588     0.16500
H1510       H  0.32104149  0.91006098  0.88507794     0.12400
H1511       H  0.30283979  0.81568632  0.79455011     0.15200
H1512       H  0.22570908  0.84808250  0.77995447     0.15000
C1513       C  0.35026398  0.69457648  0.33242905    -0.17900
C1514       C  0.36883781  0.69226746  0.35203950    -0.20000
C1515       C  0.38980716  0.71053643  0.35378776     0.20600
C1516       C  0.39199733  0.73146237  0.33566869    -0.03000
C1517       C  0.37312345  0.73391399  0.31599033    -0.06000
C1518       C  0.35224182  0.71528637  0.31429637     0.20900
C1519       C  0.37516610  0.75498907  0.29803454     0.19000
C1520       C  0.39612781  0.77326960  0.29977707    -0.17500
C1521       C  0.41494076  0.77071603  0.31913447    -0.19700
C1522       C  0.41306084  0.74991323  0.33717104     0.20500
C1523       C  0.43183888  0.74723055  0.35667365    -0.32700
C1524       C  0.42972614  0.72645122  0.37475820     0.01200
C1525       C  0.40864703  0.70823308  0.37327486    -0.24100
C1526       C  0.33362922  0.71778753  0.29461739    -0.28700
C1527       C  0.33531900  0.73896875  0.27685431     0.06900
C1528       C  0.35617464  0.75748412  0.27872367    -0.27300
H1529       H  0.33431801  0.68015610  0.33145970     0.11600
H1530       H  0.36685598  0.67610546  0.36579590     0.12800
H1531       H  0.39800443  0.78954072  0.28612327     0.11800
H1532       H  0.43096529  0.78504926  0.32001352     0.11100
H1533       H  0.44802558  0.76135910  0.35797750     0.16500
H1534       H  0.40701869  0.69229441  0.38733036     0.12400
H1535       H  0.31744965  0.70362906  0.29351096     0.15200
H1536       H  0.35766638  0.77381890  0.26507370     0.15000
C1537       C  0.17063533  0.63688621  0.35831374    -0.17900
C1538       C  0.17428489  0.65731564  0.34022664    -0.22400
C1539       C  0.19611446  0.65697641  0.32376224     0.20600
C1540       C  0.21465527  0.63606125  0.32590070    -0.03000
C1541       C  0.21099278  0.61552222  0.34404361    -0.06000
C1542       C  0.18874436  0.61580972  0.36019301     0.20900
C1543       C  0.22955825  0.59460027  0.34589567     0.19000
C1544       C  0.25171112  0.59453594  0.32997280    -0.17500
C1545       C  0.25527933  0.61482663  0.31195344    -0.19700
C1546       C  0.23678643  0.63546345  0.30972030     0.20500
C1547       C  0.24003906  0.65532616  0.29130359    -0.32700
C1548       C  0.22148346  0.67598109  0.28846422     0.01200
C1549       C  0.19964809  0.67691441  0.30500233    -0.24100
C1550       C  0.18511514  0.59500392  0.37790589    -0.28700
C1551       C  0.20350001  0.57415903  0.37950248     0.06900
C1552       C  0.22567129  0.57407993  0.36365024    -0.27300
H1553       H  0.15356316  0.63747254  0.37071685     0.11600
H1554       H  0.15993468  0.67326015  0.33898420     0.12800
H1555       H  0.26616122  0.57868879  0.33132324     0.11800
H1556       H  0.27241724  0.61428080  0.29962529     0.11100
H1557       H  0.25715237  0.65439769  0.27896377     0.16500
H1558       H  0.18534134  0.69284190  0.30310068     0.12400
H1559       H  0.16825968  0.59504718  0.39062570     0.15200
H1560       H  0.24000944  0.55814307  0.36545868     0.15000
C1561       C  0.37253022  0.62115547  0.20308219    -0.17900
C1562       C  0.38914210  0.59952246  0.19811915    -0.20000
C1563       C  0.39625746  0.59321452  0.17290551     0.20600
C1564       C  0.38654033  0.60885133  0.15245455    -0.03000
C1565       C  0.36979705  0.63075062  0.15748478    -0.06000
C1566       C  0.36277372  0.63682990  0.18291126     0.20900
C1567       C  0.36013464  0.64654872  0.13711582     0.19000
C1568       C  0.36735695  0.64022252  0.11190063    -0.17500
C1569       C  0.38402413  0.61854765  0.10690325    -0.19700
C1570       C  0.39377133  0.60278868  0.12702293     0.20500
C1571       C  0.41099258  0.58140817  0.12225510    -0.32700
C1572       C  0.42093897  0.56611554  0.14261173     0.01200
C1573       C  0.41329221  0.57185871  0.16781343    -0.24100
C1574       C  0.34586877  0.65828483  0.18777856    -0.28700
C1575       C  0.33560481  0.67387682  0.16763022     0.06900
C1576       C  0.34317628  0.66812435  0.14231594    -0.27300
H1577       H  0.36729669  0.62562820  0.22272256     0.11600
H1578       H  0.39650728  0.58778244  0.21401597     0.12800
H1579       H  0.36012931  0.65206649  0.09601880     0.11800
H1580       H  0.38939200  0.61418091  0.08728012     0.11100
H1581       H  0.41709192  0.57691333  0.10284856     0.16500
H1582       H  0.42120429  0.56006171  0.18344170     0.12400
H1583       H  0.34037109  0.66257796  0.20740132     0.15200
H1584       H  0.33526322  0.67985548  0.12665771     0.15000
C1585       C  0.22015752  0.88874011  0.04236888    -0.17900
C1586       C  0.21725473  0.86720508  0.05926516    -0.20000
C1587       C  0.23945608  0.85401444  0.06891420     0.20600
C1588       C  0.26480886  0.86208614  0.06107271    -0.03000
C1589       C  0.26774120  0.88381920  0.04408633    -0.06000
C1590       C  0.24528994  0.89734067  0.03488921     0.20900
C1591       C  0.29313547  0.89222827  0.03656936     0.19000
C1592       C  0.31528153  0.87871796  0.04589104    -0.17500
C1593       C  0.31236282  0.85721739  0.06285172    -0.19700
C1594       C  0.28725469  0.84889415  0.07070611     0.20500
C1595       C  0.28423304  0.82833617  0.08878805    -0.32700
C1596       C  0.25909897  0.82126241  0.09764611     0.01200
C1597       C  0.23678222  0.83357530  0.08703124    -0.24100
C1598       C  0.24841183  0.91916711  0.01831876    -0.28700
C1599       C  0.27361584  0.92730975  0.01068836     0.06900
C1600       C  0.29589225  0.91395417  0.01980504    -0.27300
H1601       H  0.20276840  0.89882435  0.03533887     0.11600
H1602       H  0.19766637  0.86113397  0.06510386     0.12800
H1603       H  0.33487583  0.88493486  0.04023534     0.11800
H1604       H  0.32976305  0.84732464  0.07009550     0.11100
H1605       H  0.30145711  0.81892363  0.09699423     0.16500
H1606       H  0.21729750  0.82790182  0.09358809     0.12400
H1607       H  0.23134207  0.92952206  0.01086783     0.15200
H1608       H  0.31525957  0.92035535  0.01355628     0.15000
C1609       C  0.12187671  0.82210462  0.07503714    -0.17900
C1610       C  0.10392172  0.82541592  0.05500247    -0.20000
C1611       C  0.09237054  0.80301845  0.04322324     0.20600
C1612       C  0.09904409  0.77701072  0.05167875    -0.03000
C1613       C  0.11704435  0.77369038  0.07195877    -0.06000
C1614       C  0.12851160  0.79633733  0.08370594     0.20900
C1615       C  0.12357031  0.74768878  0.08042811     0.19000
C1616       C  0.11224153  0.72527130  0.06852163    -0.17500
C1617       C  0.09445494  0.72854293  0.04842185    -0.19700
C1618       C  0.08765760  0.75428708  0.03994482     0.20500
C1619       C  0.06948751  0.75770218  0.02010801    -0.32700
C1620       C  0.06259249  0.78349339  0.01183616     0.01200
C1621       C  0.07413807  0.80609683  0.02328559    -0.24100
C1622       C  0.14650883  0.79279621  0.10378350    -0.28700
C1623       C  0.15318689  0.76686243  0.11231136     0.06900
C1624       C  0.14145092  0.74446811  0.10052898    -0.27300
H1625       H  0.13055669  0.83971407  0.08377677     0.11600
H1626       H  0.09905520  0.84550824  0.04872845     0.12800
H1627       H  0.11714679  0.70517492  0.07476053     0.11800
H1628       H  0.08593836  0.71092151  0.03955645     0.11100
H1629       H  0.06042332  0.74036471  0.01120377     0.16500
H1630       H  0.06859715  0.82596702  0.01686441     0.12400
H1631       H  0.15545526  0.81024484  0.11258239     0.15200
H1632       H  0.14642445  0.72438507  0.10677950     0.15000
C1633       C  0.81325656  0.64930015  0.33384429    -0.17900
C1634       C  0.81717482  0.62921442  0.35224969    -0.20000
C1635       C  0.79819524  0.60910000  0.35613809     0.20600
C1636       C  0.77495179  0.60933161  0.34142909    -0.03000
C1637       C  0.77095419  0.62966483  0.32298738    -0.06000
C1638       C  0.79022308  0.64974167  0.31905215     0.20900
C1639       C  0.74767934  0.62981241  0.30844435     0.19000
C1640       C  0.72855123  0.60986843  0.31244292    -0.17500
C1641       C  0.73251635  0.58974132  0.33062846    -0.19700
C1642       C  0.75565222  0.58924351  0.34512690     0.20500
C1643       C  0.75974155  0.56907211  0.36332506    -0.32700
C1644       C  0.78274399  0.56877658  0.37802488     0.01200
C1645       C  0.80192687  0.58880726  0.37446990    -0.24100
C1646       C  0.78616662  0.66972985  0.30031645    -0.28700
C1647       C  0.76304598  0.66982830  0.28548989     0.06900
C1648       C  0.74389670  0.64977345  0.28999305    -0.27300
H1649       H  0.82827986  0.66449759  0.33116496     0.11600
H1650       H  0.83510896  0.62937541  0.36340260     0.12800
H1651       H  0.71052922  0.60978369  0.30141907     0.11800
H1652       H  0.71749105  0.57453889  0.33333068     0.11100
H1653       H  0.74490090  0.55372675  0.36638751     0.16500
H1654       H  0.81957217  0.58857886  0.38607186     0.12400
H1655       H  0.80109629  0.68491382  0.29707400     0.15200
H1656       H  0.72587408  0.64946848  0.27896433     0.15000
C1657       C  0.59267349  0.76770872  0.33804315    -0.17900
C1658       C  0.61038045  0.77002383  0.31777224    -0.20000
C1659       C  0.62351033  0.74735680  0.30850879     0.20600
C1660       C  0.61900893  0.72208128  0.31982065    -0.03000
C1661       C  0.60126319  0.71976720  0.34050851    -0.06000
C1662       C  0.58795180  0.74272320  0.34946160     0.20900
C1663       C  0.59663563  0.69455792  0.35204724     0.19000
C1664       C  0.60995029  0.67192534  0.34273828    -0.17500
C1665       C  0.62746100  0.67421305  0.32205816    -0.19700
C1666       C  0.63212292  0.69920770  0.31041198     0.20500
C1667       C  0.64969659  0.70186235  0.28966219    -0.32700
C1668       C  0.65440369  0.72719974  0.27847665     0.01200
C1669       C  0.64108154  0.74971407  0.28810889    -0.24100
C1670       C  0.56983126  0.74031926  0.36944144    -0.28700
C1671       C  0.56483128  0.71536870  0.38076773     0.06900
C1672       C  0.57845565  0.69251580  0.37233611    -0.27300
H1673       H  0.58259853  0.78547109  0.34474932     0.11600
H1674       H  0.61371771  0.78956344  0.30924356     0.12800
H1675       H  0.60667966  0.65241127  0.35133257     0.11800
H1676       H  0.63735436  0.65642158  0.31517142     0.11100
H1677       H  0.65989089  0.68436192  0.28249520     0.16500
H1678       H  0.64436239  0.76935247  0.27974795     0.12400
H1679       H  0.55919015  0.75780972  0.37603635     0.15200
H1680       H  0.57443533  0.67324907  0.38116212     0.15000
C1681       C  0.58118852  0.62524792  0.11006198    -0.17900
C1682       C  0.59936661  0.64582968  0.11486168    -0.20000
C1683       C  0.61569115  0.64484563  0.13649524     0.20600
C1684       C  0.61375785  0.62268080  0.15328867    -0.03000
C1685       C  0.59539497  0.60195987  0.14849823    -0.06000
C1686       C  0.57892580  0.60332071  0.12684198     0.20900
C1687       C  0.59339906  0.57999301  0.16552019     0.19000
C1688       C  0.61001672  0.57867316  0.18685274    -0.17500
C1689       C  0.62827648  0.59906826  0.19148994    -0.19700
C1690       C  0.63013087  0.62119615  0.17494228     0.20500
C1691       C  0.64813726  0.64181324  0.17977440    -0.32700
C1692       C  0.65028912  0.66420142  0.16332978     0.01200
C1693       C  0.63392144  0.66552271  0.14162797    -0.24100
C1694       C  0.56027885  0.58292816  0.12261457    -0.28700
C1695       C  0.55784861  0.56135634  0.13988050     0.06900
C1696       C  0.57460124  0.55991155  0.16113185    -0.27300
H1697       H  0.56877885  0.62656336  0.09327934     0.11600
H1698       H  0.60061841  0.66255765  0.10165743     0.12800
H1699       H  0.60882905  0.56190036  0.20001584     0.11800
H1700       H  0.64088138  0.59759859  0.20812702     0.11100
H1701       H  0.66060229  0.64023211  0.19650503     0.16500
H1702       H  0.63534280  0.68254710  0.12877894     0.12400
H1703       H  0.54721116  0.58405763  0.10628299     0.15200
H1704       H  0.57252772  0.54340184  0.17452380     0.15000
C1705       C  0.86924093  0.81998910  0.04150963    -0.17900
C1706       C  0.85032244  0.81635578  0.06070397    -0.20000
C1707       C  0.85033033  0.79309818  0.07587673     0.20600
C1708       C  0.86974465  0.77340509  0.07180353    -0.03000
C1709       C  0.88894553  0.77715468  0.05257291    -0.06000
C1710       C  0.88859543  0.80050509  0.03724902     0.20900
C1711       C  0.90837660  0.75745128  0.04858942     0.19000
C1712       C  0.90855029  0.73432083  0.06390321    -0.17500
C1713       C  0.88942488  0.73052679  0.08281631    -0.19700
C1714       C  0.86987612  0.74985334  0.08680117     0.20500
C1715       C  0.85033309  0.74588961  0.10536079    -0.32700
C1716       C  0.83073420  0.76526482  0.10940155     0.01200
C1717       C  0.83110024  0.78902547  0.09481704    -0.24100
C1718       C  0.90755828  0.80388225  0.01792801    -0.28700
C1719       C  0.92685465  0.78425422  0.01387292     0.06900
C1720       C  0.92720319  0.76115620  0.02928297    -0.27300
H1721       H  0.86870615  0.83803826  0.02995812     0.11600
H1722       H  0.83556126  0.83167148  0.06356597     0.12800
H1723       H  0.92339213  0.71906742  0.06114037     0.11800
H1724       H  0.88985690  0.71239930  0.09426482     0.11100
H1725       H  0.85040530  0.72766562  0.11670378     0.16500
H1726       H  0.81605389  0.80405071  0.09776433     0.12400
H1727       H  0.90738832  0.82169189  0.00600680     0.15200
H1728       H  0.94211592  0.74604821  0.02606003     0.15000
C1729       C  0.74787354  0.88737608  0.07784635    -0.17900
C1730       C  0.74395208  0.90819096  0.06037082    -0.20000
C1731       C  0.72181907  0.90819014  0.04444448     0.20600
C1732       C  0.70333089  0.88704290  0.04624335    -0.03000
C1733       C  0.70728135  0.86597926  0.06400828    -0.06000
C1734       C  0.72971123  0.86620429  0.07973226     0.20900
C1735       C  0.68891847  0.84472487  0.06597761     0.19000
C1736       C  0.66668676  0.84490881  0.05003194    -0.17500
C1737       C  0.66284827  0.86569981  0.03227330    -0.19700
C1738       C  0.68108312  0.88682949  0.03016523     0.20500
C1739       C  0.67773608  0.90754970  0.01210451    -0.32700
C1740       C  0.69632330  0.92846550  0.01011024     0.01200
C1741       C  0.71811391  0.92876992  0.02651223    -0.24100
C1742       C  0.73373825  0.84532610  0.09716828    -0.28700
C1743       C  0.71567328  0.82387741  0.09959608     0.06900
C1744       C  0.69316008  0.82379348  0.08382813    -0.27300
H1745       H  0.76519204  0.88781235  0.08988546     0.11600
H1746       H  0.75832436  0.92423585  0.05922245     0.12800
H1747       H  0.65229643  0.82889140  0.05120710     0.11800
H1748       H  0.64561960  0.86520565  0.02012134     0.11100
H1749       H  0.66098332  0.90727038  0.99931457     0.16500
H1750       H  0.73252997  0.94474465  0.02478615     0.12400
H1751       H  0.75113994  0.84606338  0.10908535     0.15200
H1752       H  0.67899210  0.80760611  0.08546633     0.15000
C1753       C  0.61375090  0.20339705  0.34983111    -0.17900
C1754       C  0.63298531  0.20469254  0.33074170    -0.20000
C1755       C  0.63449305  0.22694685  0.31432365     0.20600
C1756       C  0.61644170  0.24813159  0.31710381    -0.03000
C1757       C  0.59686221  0.24673415  0.33628441    -0.06000
C1758       C  0.59563832  0.22428605  0.35277839     0.20900
C1759       C  0.57850338  0.26771013  0.33890811     0.19000
C1760       C  0.57989114  0.28983732  0.32228895    -0.17500
C1761       C  0.59943655  0.29130738  0.30339524    -0.19700
C1762       C  0.61785962  0.27059758  0.30065346     0.20500
C1763       C  0.63741735  0.27173731  0.28156650    -0.32700
C1764       C  0.65515046  0.25037275  0.27836159     0.01200
C1765       C  0.65358422  0.22817834  0.29500752    -0.24100
C1766       C  0.57635161  0.22309817  0.37193566    -0.28700
C1767       C  0.55819901  0.24397688  0.37478252     0.06900
C1768       C  0.55917708  0.26614344  0.35812684    -0.27300
H1769       H  0.61301293  0.18600928  0.36227489     0.11600
H1770       H  0.64668866  0.18823920  0.32879655     0.12800
H1771       H  0.56588640  0.30605823  0.32394137     0.11800
H1772       H  0.60007283  0.30861324  0.29084534     0.11100
H1773       H  0.63837914  0.28886836  0.26880036     0.16500
H1774       H  0.66727286  0.21171246  0.29291014     0.12400
H1775       H  0.57535777  0.20595232  0.38469307     0.15200
H1776       H  0.54500808  0.28216283  0.36032532     0.15000
C1777       C  0.73254920  0.39346054  0.30247415    -0.17900
C1778       C  0.73604253  0.41340976  0.32096134    -0.20000
C1779       C  0.75662912  0.41168325  0.33871575     0.20600
C1780       C  0.77391534  0.38959882  0.33776931    -0.03000
C1781       C  0.77045897  0.36947326  0.31895126    -0.06000
C1782       C  0.74963010  0.37144505  0.30132138     0.20900
C1783       C  0.78772173  0.34737408  0.31786248     0.19000
C1784       C  0.80820510  0.34559728  0.33578526    -0.17500
C1785       C  0.81150931  0.36541286  0.35455616    -0.19700
C1786       C  0.79452575  0.38753808  0.35569390     0.20500
C1787       C  0.79765429  0.40753370  0.37448043    -0.32700
C1788       C  0.78041287  0.42956726  0.37558624     0.01200
C1789       C  0.76004641  0.43151185  0.35752161    -0.24100
C1790       C  0.74608308  0.35136946  0.28287476    -0.28700
C1791       C  0.76310805  0.32912834  0.28144484     0.06900
C1792       C  0.78406544  0.32742325  0.29902809    -0.27300
H1793       H  0.71642325  0.39524454  0.28906385     0.11600
H1794       H  0.72254977  0.43016015  0.32143338     0.12800
H1795       H  0.82163441  0.32879521  0.33536539     0.11800
H1796       H  0.82739089  0.36342347  0.36820785     0.11100
H1797       H  0.81332845  0.40592059  0.38842030     0.16500
H1798       H  0.74662601  0.44832462  0.35841969     0.12400
H1799       H  0.72991895  0.35322477  0.26952195     0.15200
H1800       H  0.79733892  0.31049661  0.29825400     0.15000
C1801       C  0.60514383  0.37288019  0.19844189    -0.17900
C1802       C  0.58771462  0.39369182  0.19299282    -0.20000
C1803       C  0.57871252  0.39775542  0.16794628     0.20600
C1804       C  0.58724818  0.38061136  0.14814801    -0.03000
C1805       C  0.60521897  0.35981483  0.15360112    -0.06000
C1806       C  0.61416680  0.35601684  0.17886912     0.20900
C1807       C  0.61443477  0.34306319  0.13378945     0.19000
C1808       C  0.60510592  0.34698454  0.10876457    -0.17500
C1809       C  0.58688191  0.36728335  0.10343179    -0.19700
C1810       C  0.57792503  0.38432368  0.12294614     0.20500
C1811       C  0.55985775  0.40499002  0.11782334    -0.32700
C1812       C  0.55158357  0.42219031  0.13754248     0.01200
C1813       C  0.56119719  0.41857219  0.16243287    -0.24100
C1814       C  0.63246087  0.33585130  0.18413179    -0.28700
C1815       C  0.64261989  0.31960742  0.16445185     0.06900
C1816       C  0.63313943  0.32308165  0.13931073    -0.27300
H1817       H  0.61183620  0.37018221  0.21795080     0.11600
H1818       H  0.58124940  0.40661381  0.20839845     0.12800
H1819       H  0.61193449  0.33436217  0.09328426     0.11800
H1820       H  0.57996064  0.36979794  0.08398068     0.11100
H1821       H  0.55222833  0.40775763  0.09864773     0.16500
H1822       H  0.55459401  0.43178395  0.17758247     0.12400
H1823       H  0.63930977  0.33330527  0.20361761     0.15200
H1824       H  0.64082745  0.31080460  0.12394887     0.15000
C1825       C  0.75422305  0.11014406  0.07385670    -0.17900
C1826       C  0.74953892  0.08911092  0.05677941    -0.20000
C1827       C  0.72672962  0.08877956  0.04173759     0.20600
C1828       C  0.70844352  0.10991096  0.04392344    -0.03000
C1829       C  0.71311857  0.13111478  0.06132139    -0.06000
C1830       C  0.73612474  0.13117092  0.07629617     0.20900
C1831       C  0.69476792  0.15214463  0.06379780     0.19000
C1832       C  0.67200790  0.15183658  0.04860716    -0.17500
C1833       C  0.66749542  0.13097432  0.03117197    -0.19700
C1834       C  0.68555267  0.10989117  0.02870188     0.20500
C1835       C  0.68130069  0.08893745  0.01115482    -0.32700
C1836       C  0.69957324  0.06795198  0.00880398     0.01200
C1837       C  0.72206758  0.06786764  0.02434429    -0.24100
C1838       C  0.74060343  0.15206697  0.09366693    -0.28700
C1839       C  0.72231975  0.17304060  0.09671480     0.06900
C1840       C  0.69941562  0.17292863  0.08153080    -0.27300
H1841       H  0.77199608  0.10990824  0.08525375     0.11600
H1842       H  0.76380996  0.07311365  0.05529634     0.12800
H1843       H  0.65767295  0.16775989  0.05019529     0.11800
H1844       H  0.64982158  0.13130789  0.01963877     0.11100
H1845       H  0.66402501  0.08905781  0.99903895     0.16500
H1846       H  0.73624134  0.05181674  0.02235874     0.12400
H1847       H  0.75830425  0.15164717  0.10515742     0.15200
H1848       H  0.68512580  0.18883933  0.08362679     0.15000
C1849       C  0.90388822  0.20370034  0.06110821    -0.17900
C1850       C  0.88447244  0.20412868  0.08012669    -0.20000
C1851       C  0.86795770  0.22644191  0.08282669     0.20600
C1852       C  0.87124710  0.24867623  0.06636274    -0.03000
C1853       C  0.89063243  0.24813026  0.04699154    -0.06000
C1854       C  0.90699316  0.22548676  0.04431374     0.20900
C1855       C  0.89357853  0.27022079  0.03027495     0.19000
C1856       C  0.87751665  0.29278914  0.03335166    -0.17500
C1857       C  0.85849635  0.29342406  0.05268264    -0.19700
C1858       C  0.85511089  0.27143286  0.06916910     0.20500
C1859       C  0.83581288  0.27180275  0.08834493    -0.32700
C1860       C  0.83210486  0.24958932  0.10463650     0.01200
C1861       C  0.84824291  0.22692688  0.10168250    -0.24100
C1862       C  0.92610424  0.22507294  0.02487928    -0.28700
C1863       C  0.92879645  0.24689543  0.00803006     0.06900
C1864       C  0.91254673  0.26937189  0.01080703    -0.27300
H1865       H  0.91636951  0.18623488  0.05942570     0.11600
H1866       H  0.88235690  0.18697470  0.09272296     0.12800
H1867       H  0.87964945  0.30995977  0.02077869     0.11800
H1868       H  0.84632055  0.31108269  0.05465032     0.11100
H1869       H  0.82341044  0.28930910  0.09035016     0.16500
H1870       H  0.84568774  0.20980406  0.11426221     0.12400
H1871       H  0.93886940  0.20785863  0.02275447     0.15200
H1872       H  0.91491699  0.28625133  0.99789136     0.15000
C1873       C  0.26626868  0.38836944  0.31840178    -0.17900
C1874       C  0.26335001  0.40669655  0.33845575    -0.20000
C1875       C  0.23827435  0.41303067  0.34783292     0.20600
C1876       C  0.21587477  0.40101934  0.33673007    -0.03000
C1877       C  0.21881589  0.38276420  0.31633397    -0.06000
C1878       C  0.24414511  0.37619659  0.30727868     0.20900
C1879       C  0.19640914  0.37087489  0.30521809     0.19000
C1880       C  0.17130075  0.37744468  0.31437551    -0.17500
C1881       C  0.16838803  0.39535288  0.33471140    -0.19700
C1882       C  0.19052596  0.40713192  0.34608307     0.20500
C1883       C  0.18777109  0.42498725  0.36656632    -0.32700
C1884       C  0.20997856  0.43710824  0.37746442     0.01200
C1885       C  0.23514955  0.43118236  0.36806030    -0.24100
C1886       C  0.24690662  0.35726375  0.28757253    -0.28700
C1887       C  0.22463259  0.34484805  0.27674746     0.06900
C1888       C  0.19945111  0.35222505  0.28545604    -0.27300
H1889       H  0.28585400  0.38362264  0.31166428     0.11600
H1890       H  0.28072752  0.41578888  0.34674760     0.12800
H1891       H  0.15390354  0.36850605  0.30597177     0.11800
H1892       H  0.14881394  0.39994623  0.34158342     0.11100
H1893       H  0.16839624  0.42985630  0.37383875     0.16500
H1894       H  0.25219226  0.44079678  0.37651436     0.12400
H1895       H  0.26640537  0.35187878  0.28101587     0.15200
H1896       H  0.18207960  0.34301451  0.27725078     0.15000
C1897       C  0.36350625  0.19600600  0.35641693    -0.17900
C1898       C  0.34307606  0.19683188  0.33850327    -0.20000
C1899       C  0.34142956  0.21800947  0.32084219     0.20600
C1900       C  0.36078361  0.23838527  0.32110060    -0.03000
C1901       C  0.38133355  0.23760796  0.33919589    -0.06000
C1902       C  0.38263496  0.21634681  0.35699483     0.20900
C1903       C  0.40041759  0.25825657  0.33961740     0.19000
C1904       C  0.39900192  0.27925345  0.32181197    -0.17500
C1905       C  0.37875490  0.27992368  0.30380348    -0.19700
C1906       C  0.35950209  0.25970690  0.30343434     0.20500
C1907       C  0.33883916  0.26070053  0.28585504    -0.32700
C1908       C  0.31906652  0.24082718  0.28565187     0.01200
C1909       C  0.32067274  0.21934600  0.30312090    -0.24100
C1910       C  0.40290782  0.21597085  0.37516052    -0.28700
C1911       C  0.42171883  0.23666361  0.37578778     0.06900
C1912       C  0.42044931  0.25766499  0.35795963    -0.27300
H1913       H  0.36425384  0.17952864  0.36993267     0.11600
H1914       H  0.32846894  0.18097203  0.33856141     0.12800
H1915       H  0.41350640  0.29521496  0.32187006     0.11800
H1916       H  0.37802362  0.29640191  0.29028409     0.11100
H1917       H  0.33812578  0.27726255  0.27243565     0.16500
H1918       H  0.30572252  0.20380971  0.30308524     0.12400
H1919       H  0.40397285  0.19982402  0.38903615     0.15200
H1920       H  0.43492553  0.27366065  0.35864780     0.15000
C1921       C  0.36809748  0.41464128  0.19017641    -0.17900
C1922       C  0.34581623  0.39903150  0.19511243    -0.20000
C1923       C  0.33494570  0.38291236  0.17584590     0.20600
C1924       C  0.34639391  0.38268464  0.15124767    -0.03000
C1925       C  0.36895952  0.39843807  0.14625933    -0.06000
C1926       C  0.37985083  0.41439173  0.16589027     0.20900
C1927       C  0.38067187  0.39814591  0.12173012     0.19000
C1928       C  0.36957645  0.38215396  0.10243454    -0.17500
C1929       C  0.34728237  0.36637528  0.10744411    -0.19700
C1930       C  0.33556658  0.36641033  0.13180547     0.20500
C1931       C  0.31375832  0.34990046  0.13734618    -0.32700
C1932       C  0.30296002  0.34934167  0.16216530     0.01200
C1933       C  0.31331703  0.36639975  0.18105635    -0.24100
C1934       C  0.40221458  0.42996025  0.16088010    -0.28700
C1935       C  0.41386207  0.42989540  0.13654250     0.06900
C1936       C  0.40314999  0.41394518  0.11699610    -0.27300
H1937       H  0.37620721  0.42684231  0.20539929     0.11600
H1938       H  0.33721851  0.39937399  0.21409438     0.12800
H1939       H  0.37823274  0.38173188  0.08348473     0.11800
H1940       H  0.33930030  0.35399962  0.09228969     0.11100
H1941       H  0.30613572  0.33648692  0.12281348     0.16500
H1942       H  0.30508111  0.36607550  0.20021290     0.12400
H1943       H  0.41049344  0.44247492  0.17581206     0.15200
H1944       H  0.41209459  0.41419880  0.09815814     0.15000
C1945       C  0.09816524  0.20533388  0.05052464    -0.17900
C1946       C  0.11815369  0.20477074  0.06884820    -0.20000
C1947       C  0.13259164  0.22806568  0.07448135     0.20600
C1948       C  0.12724116  0.25203444  0.06117406    -0.03000
C1949       C  0.10687361  0.25268297  0.04285471    -0.06000
C1950       C  0.09213509  0.22925031  0.03770149     0.20900
C1951       C  0.10112558  0.27680519  0.02987079     0.19000
C1952       C  0.11612710  0.29985386  0.03494207    -0.17500
C1953       C  0.13641302  0.29915728  0.05300624    -0.19700
C1954       C  0.14197834  0.27543377  0.06641251     0.20500
C1955       C  0.16165233  0.27483637  0.08528488    -0.32700
C1956       C  0.16649465  0.25123625  0.09930368     0.01200
C1957       C  0.15201048  0.22786243  0.09346370    -0.24100
C1958       C  0.07160807  0.23017579  0.01986968    -0.28700
C1959       C  0.06568108  0.25417600  0.00715720     0.06900
C1960       C  0.08050454  0.27739650  0.01206437    -0.27300
H1961       H  0.08722313  0.18712656  0.04658937     0.11600
H1962       H  0.12219337  0.18614157  0.07876529     0.12800
H1963       H  0.11207187  0.31848264  0.02503509     0.11800
H1964       H  0.14757125  0.31728048  0.05669911     0.11100
H1965       H  0.17265563  0.29293462  0.08952670     0.16500
H1966       H  0.15561571  0.20943980  0.10389640     0.12400
H1967       H  0.06034328  0.21223100  0.01562548     0.15200
H1968       H  0.07602896  0.29576297  0.00185961     0.15000
C1969       C  0.21288275  0.11713083  0.06773747    -0.17900
C1970       C  0.21658476  0.09979284  0.04699271    -0.20000
C1971       C  0.24195219  0.09166839  0.03987755     0.20600
C1972       C  0.26381757  0.10095146  0.05394725    -0.03000
C1973       C  0.26006644  0.11841973  0.07489949    -0.06000
C1974       C  0.23448388  0.12667566  0.08175606     0.20900
C1975       C  0.28193822  0.12771443  0.08887399     0.19000
C1976       C  0.30727629  0.11915887  0.08215040    -0.17500
C1977       C  0.31098706  0.10177181  0.06149669    -0.19700
C1978       C  0.28943142  0.09272821  0.04714357     0.20500
C1979       C  0.29299410  0.07540176  0.02628667    -0.32700
C1980       C  0.27128235  0.06599977  0.01230025     0.01200
C1981       C  0.24583329  0.07418489  0.01916571    -0.24100
C1982       C  0.23099776  0.14459565  0.10224468    -0.28700
C1983       C  0.25282247  0.15455816  0.11584572     0.06900
C1984       C  0.27818696  0.14564943  0.10914421    -0.27300
H1985       H  0.19310165  0.12317196  0.07274813     0.11600
H1986       H  0.19957781  0.09275579  0.03647663     0.12800
H1987       H  0.32426275  0.12601250  0.09281389     0.11800
H1988       H  0.33074288  0.09546854  0.05669214     0.11100
H1989       H  0.31255906  0.06866415  0.02122211     0.16500
H1990       H  0.22909797  0.06653834  0.00859452     0.12400
H1991       H  0.21137467  0.15125497  0.10716135     0.15200
H1992       H  0.29521242  0.15296188  0.11948339     0.15000
C1993       C  0.10687105  0.84911639  0.27796720    -0.17900
C1994       C  0.08869248  0.86928325  0.28372043    -0.20000
C1995       C  0.08182062  0.88845720  0.26520879     0.20600
C1996       C  0.09324578  0.88712238  0.24058697    -0.03000
C1997       C  0.11125267  0.86660686  0.23470574    -0.06000
C1998       C  0.11831606  0.84763639  0.25353791     0.20900
C1999       C  0.12234830  0.86526458  0.21000472     0.19000
C2000       C  0.11539317  0.88421926  0.19138767    -0.17500
C2001       C  0.09780938  0.90469187  0.19727917    -0.19700
C2002       C  0.08670839  0.90632105  0.22177972     0.20500
C2003       C  0.06894455  0.92667498  0.22766437    -0.32700
C2004       C  0.05720198  0.92786431  0.25187801     0.01200
C2005       C  0.06362636  0.90882996  0.27068987    -0.24100
C2006       C  0.13699424  0.82785466  0.24768758    -0.28700
C2007       C  0.14855313  0.82683418  0.22319693     0.06900
C2008       C  0.14062988  0.84533210  0.20438634    -0.27300
H2009       H  0.11202344  0.83470779  0.29265082     0.11600
H2010       H  0.08010723  0.86996329  0.30269301     0.12800
H2011       H  0.12376701  0.88336989  0.17232644     0.11800
H2012       H  0.09285768  0.91924218  0.18265373     0.11100
H2013       H  0.06368038  0.94135581  0.21323163     0.16500
H2014       H  0.05430270  0.90981452  0.28932737     0.12400
H2015       H  0.14289477  0.81367953  0.26231940     0.15200
H2016       H  0.14911820  0.84467025  0.18535486     0.15000
C2017       C  0.88950234  0.89784389  0.18517003    -0.17900
C2018       C  0.87231902  0.87644658  0.18041609    -0.20000
C2019       C  0.86138618  0.86169527  0.20076515     0.20600
C2020       C  0.86776218  0.86861599  0.22615815    -0.03000
C2021       C  0.88508729  0.89029478  0.23097355    -0.06000
C2022       C  0.89606040  0.90490291  0.21035303     0.20900
C2023       C  0.89161685  0.89716570  0.25638956     0.19000
C2024       C  0.88043357  0.88258937  0.27670339    -0.17500
C2025       C  0.86319498  0.86120159  0.27192537    -0.19700
C2026       C  0.85684658  0.85389626  0.24673810     0.20500
C2027       C  0.83956411  0.83237248  0.24180181    -0.32700
C2028       C  0.83274418  0.82558700  0.21652832     0.01200
C2029       C  0.84398252  0.84034033  0.19614361    -0.24100
C2030       C  0.91374090  0.92597169  0.21526894    -0.28700
C2031       C  0.92078200  0.93245644  0.24049310     0.06900
C2032       C  0.90953313  0.91816302  0.26098883    -0.27300
H2033       H  0.89775223  0.90881270  0.16912546     0.11600
H2034       H  0.86758916  0.87141635  0.16078672     0.12800
H2035       H  0.88511617  0.88765703  0.29633072     0.11800
H2036       H  0.85487199  0.85030411  0.28797365     0.11100
H2037       H  0.83082569  0.82144676  0.25763551     0.16500
H2038       H  0.83896606  0.83537582  0.17655196     0.12400
H2039       H  0.92267744  0.93686895  0.19951127     0.15200
H2040       H  0.91520022  0.92307468  0.28041894     0.15000
C2041       C  0.88700769  0.09839737  0.18763589    -0.17900
C2042       C  0.87012438  0.11971438  0.18232983    -0.20000
C2043       C  0.86462149  0.13899053  0.20110753     0.20600
C2044       C  0.87653702  0.13711375  0.22534708    -0.03000
C2045       C  0.89373990  0.11560873  0.23068672    -0.06000
C2046       C  0.89880553  0.09607740  0.21176169     0.20900
C2047       C  0.90566980  0.11352491  0.25496581     0.19000
C2048       C  0.90046227  0.13313034  0.27355572    -0.17500
C2049       C  0.88324172  0.15434847  0.26830646    -0.19700
C2050       C  0.87094078  0.15643261  0.24432889     0.20500
C2051       C  0.85268095  0.17700500  0.23916721    -0.32700
C2052       C  0.84002604  0.17843334  0.21520003     0.01200
C2053       C  0.84683489  0.15966424  0.19615311    -0.24100
C2054       C  0.91563917  0.07462094  0.21722729    -0.28700
C2055       C  0.92763462  0.07245011  0.24129476     0.06900
C2056       C  0.92260065  0.09192601  0.26012376    -0.27300
H2057       H  0.89074040  0.08364002  0.17288900     0.11600
H2058       H  0.86108222  0.12093131  0.16360268     0.12800
H2059       H  0.90955324  0.13193774  0.29225692     0.11800
H2060       H  0.87935748  0.16900117  0.28310621     0.11100
H2061       H  0.84782424  0.19135614  0.25397354     0.16500
H2062       H  0.83769890  0.16057134  0.17744990     0.12400
H2063       H  0.91979464  0.05974961  0.20266909     0.15200
H2064       H  0.93206662  0.09029763  0.27862974     0.15000
C2065       C  0.11707937  0.07632067  0.20464718    -0.17900
C2066       C  0.13848494  0.09338503  0.20057293    -0.20000
C2067       C  0.14508972  0.11290139  0.21876016     0.20600
C2068       C  0.13020007  0.11516513  0.24144306    -0.03000
C2069       C  0.10831973  0.09813177  0.24541305    -0.06000
C2070       C  0.10181382  0.07864296  0.22688078     0.20900
C2071       C  0.09283581  0.10075160  0.26772286     0.19000
C2072       C  0.09967230  0.12019785  0.28599069    -0.17500
C2073       C  0.12153939  0.13696112  0.28214624    -0.19700
C2074       C  0.13686619  0.13474761  0.25985803     0.20500
C2075       C  0.15815058  0.15227485  0.25516657    -0.32700
C2076       C  0.17220469  0.15077366  0.23197894     0.01200
C2077       C  0.16585111  0.13070418  0.21420220    -0.24100
C2078       C  0.08010537  0.06183800  0.23080808    -0.28700
C2079       C  0.06457690  0.06431614  0.25285938     0.06900
C2080       C  0.07087329  0.08385680  0.27126537    -0.27300
H2081       H  0.11231196  0.06144730  0.19027733     0.11600
H2082       H  0.14977035  0.09145298  0.18307373     0.12800
H2083       H  0.08806093  0.12249352  0.30324005     0.11800
H2084       H  0.12627188  0.15188568  0.29647542     0.11100
H2085       H  0.16280847  0.16794854  0.26879306     0.16500
H2086       H  0.17668924  0.12947156  0.19635059     0.12400
H2087       H  0.07513168  0.04675138  0.21667665     0.15200
H2088       H  0.05880899  0.08568833  0.28828179     0.15000
loop_ 
_geom_bond_atom_site_label_1 
_geom_bond_atom_site_label_2 
_geom_bond_distance 
_geom_bond_site_symmetry_2 
_ccdc_geom_bond_type 
N1            C6   1.355       .  A
N1            C5   1.356   1_545  A
N1           H33   1.034       .  S
N2            C9   1.353       .  A
N2           C10   1.353   1_655  A
N3            C8   1.352   1_565  A
N3            C7   1.352       .  A
N3           H34   1.033       .  S
N4           C11   1.353       .  A
N4           C12   1.355   1_655  A
C5           C13   1.386       .  A
C5           C21   1.420       .  A
C6           C22   1.423       .  A
C6           C14   1.388       .  A
C7           C15   1.387       .  A
C7           C24   1.415       .  A
C8           C23   1.417       .  A
C8           C16   1.388       .  A
C9           C21   1.416       .  A
C9           C17   1.387       .  A
C10          C24   1.416       .  A
C10          C18   1.387       .  A
C11          C19   1.388       .  A
C11          C22   1.419       .  A
C12          C20   1.386       .  A
C12          C23   1.417       .  A
C13          C14   1.379   1_565  A
C13          H25   1.082       .  S
C14          H26   1.082       .  S
C15          C16   1.376   1_565  A
C15          H27   1.083       .  S
C16          H28   1.083       .  S
C17          C18   1.371   1_655  A
C17          H29   1.082       .  S
C18          H30   1.082       .  S
C19          C20   1.372   1_655  A
C19          H31   1.082       .  S
C20          H32   1.082       .  S
C21        C2031   1.490       .  S
C22        C2055   1.490       .  S
C23        C2079   1.488       .  S
C24        C2004   1.480       .  S
Zr35         O36   2.445       .  S
Zr35         O37   2.442       .  S
Zr35         O38   2.428       .  S
Zr35         O41   2.423       .  S
Zr35         O43   2.379       .  S
Zr35         O44   2.380       .  S
Zr35         O45   2.413       .  S
Zr35         O46   2.398       .  S
O36          H92   0.991       .  S
O36         H100   0.990       .  S
O37          C57   1.284       .  A
O38          C59   1.282       .  A
O39         Zr49   2.445       .  S
O39          C58   1.287       .  A
O40         Zr48   2.448       .  S
O40          C59   1.286       .  A
O41          C58   1.284       .  A
O42         Zr50   2.412       .  S
O42          C57   1.280       .  A
O43         Zr48   2.405       .  S
O43         Zr50   2.381       .  S
O44         Zr49   2.403       .  S
O44         Zr50   2.381       .  S
O44          H79   0.974       .  S
O45         Zr48   2.408       .  S
O45         Zr65   2.388       .  S
O45          H82   0.964       .  S
O46         Zr49   2.390       .  S
O46         Zr65   2.387       .  S
Zr47         O72   2.442       .  S
Zr47         O66   2.446       .  S
Zr47         O74   2.423       .  S
Zr47         O62   2.425       .  S
Zr47         O53   2.398       .  S
Zr47         O54   2.410       .  S
Zr47         O55   2.376       .  S
Zr47         O56   2.380       .  S
Zr48         O67   2.438       .  S
Zr48         O60   2.435       .  S
Zr48         O61   2.452       .  S
Zr48         O54   2.405       .  S
Zr48         O55   2.397       .  S
Zr49         O51   2.436       .  S
Zr49         O73   2.438       .  S
Zr49         O75   2.442       .  S
Zr49         O53   2.394       .  S
Zr49         O56   2.400       .  S
Zr50         O76   2.437       .  S
Zr50         O77   2.435       .  S
Zr50         O52   2.438       .  S
Zr50         O53   2.388       .  S
Zr50         O54   2.394       .  S
O51          H88   0.990       .  S
O52          H83   0.991       .  S
O52          H97   0.990       .  S
O54          H80   0.966       .  S
O55         Zr65   2.377       .  S
O56         Zr65   2.380       .  S
O56          H81   0.967       .  S
C57        C1887   1.487       .  S
C58        C1908   1.487       .  S
C59        C1932   1.479       .  S
O60          H96   0.990       .  S
O61          C63   1.288       .  A
O62          C63   1.282       .  A
C63        C1956   1.488       .  S
O64         Zr65   2.438       .  S
O64          H93   0.990       .  S
Zr65         O68   2.436       .  S
Zr65         O69   2.438       .  S
Zr65         O70   2.409       .  S
O66          C71   1.286       .  A
O67          H84   0.990       .  S
O67          H99   0.990       .  S
O68          H85   0.989       .  S
O69          H89   0.990       .  S
O69          H98   0.990       .  S
O70          C71   1.280       .  A
C71        C1983   1.488       .  S
O72          H91   0.990       .  S
O72          H95   0.990       .  S
O73          H87   0.991       .  S
O73          H94   0.989       .  S
O74          C78   1.283       .  A
O75          C78   1.286       .  A
O76          H86   0.990       .  S
O77          H90   0.990       .  S
C78        C2076   1.477       .  S
Zr101       O102   2.441       .  S
Zr101       O103   2.448       .  S
Zr101       O104   2.433       .  S
Zr101       O107   2.428       .  S
Zr101       O109   2.381       .  S
Zr101       O110   2.381       .  S
Zr101       O111   2.411       .  S
Zr101       O112   2.400       .  S
O102        H158   0.990       .  S
O102        H166   0.990       .  S
O103        C123   1.286       .  A
O104        C125   1.285       .  A
O105       Zr115   2.457       .  S
O105        C124   1.290       .  A
O106       Zr114   2.448       .  S
O106        C125   1.287       .  A
O107        C124   1.285       .  A
O108       Zr116   2.419       .  S
O108        C123   1.282       .  A
O109       Zr114   2.408       .  S
O109       Zr116   2.377       .  S
O110       Zr115   2.399       .  S
O110       Zr116   2.379       .  S
O110        H145   0.953       .  S
O111       Zr114   2.406       .  S
O111       Zr131   2.397       .  S
O111        H148   0.964       .  S
O112       Zr115   2.397       .  S
O112       Zr131   2.394       .  S
Zr113       O138   2.442       .  S
Zr113       O132   2.436       .  S
Zr113       O140   2.416       .  S
Zr113       O128   2.433       .  S
Zr113       O119   2.402       .  S
Zr113       O120   2.403       .  S
Zr113       O121   2.377       .  S
Zr113       O122   2.379       .  S
Zr114       O133   2.434       .  S
Zr114       O126   2.436       .  S
Zr114       O127   2.455       .  S
Zr114       O120   2.403       .  S
Zr114       O121   2.393       .  S
Zr115       O117   2.435       .  S
Zr115       O139   2.436       .  S
Zr115       O141   2.458       .  S
Zr115       O119   2.399       .  S
Zr115       O122   2.397       .  S
Zr116       O142   2.435       .  S
Zr116       O143   2.435       .  S
Zr116       O118   2.438       .  S
Zr116       O119   2.398       .  S
Zr116       O120   2.389       .  S
O117        H154   0.990       .  S
O118        H149   0.990       .  S
O118        H163   0.990       .  S
O120        H146   0.957       .  S
O121       Zr131   2.380       .  S
O122       Zr131   2.378       .  S
O122        H147   0.965       .  S
C123       C1764   1.486       .  S
C124       C1791   1.497       .  S
C125       C1815   1.490       .  S
O126        H162   0.990       .  S
O127        C129   1.289       .  A
O128        C129   1.284       .  A
C129       C1839   1.494       .  S
O130       Zr131   2.439       .  S
O130        H159   0.991       .  S
Zr131       O134   2.438       .  S
Zr131       O135   2.438       .  S
Zr131       O136   2.423       .  S
O132        C137   1.284       .  A
O133        H150   0.990       .  S
O133        H165   0.989       .  S
O134        H151   0.990       .  S
O135        H155   0.989       .  S
O135        H164   0.990       .  S
O136        C137   1.282       .  A
C137       C1860   1.483       .  S
O138        H157   0.990       .  S
O138        H161   0.991       .  S
O139        H153   0.990       .  S
O139        H160   0.990       .  S
O140        C144   1.283       .  A
O141        C144   1.289       .  A
O142        H152   0.990       .  S
O143        H156   0.990       .  S
C144       C2052   1.494       .  S
Zr167       O168   2.442       .  S
Zr167       O169   2.435       .  S
Zr167       O170   2.410       .  S
Zr167       O173   2.409       .  S
Zr167       O175   2.378       .  S
Zr167       O176   2.380       .  S
Zr167       O177   2.401       .  S
Zr167       O178   2.399       .  S
O168        H224   0.991       .  S
O168        H232   0.990       .  S
O169        C189   1.283       .  A
O170        C191   1.281       .  A
O171       Zr181   2.460       .  S
O171        C190   1.290       .  A
O172       Zr180   2.474       .  S
O172        C191   1.292       .  A
O173        C190   1.282       .  A
O174       Zr182   2.414       .  S
O174        C189   1.282       .  A
O175       Zr180   2.399       .  S
O175       Zr182   2.374       .  S
O176       Zr181   2.399       .  S
O176       Zr182   2.376       .  S
O176        H211   0.967       .  S
O177       Zr180   2.405       .  S
O177       Zr197   2.391       .  S
O177        H214   0.967       .  S
O178       Zr181   2.404       .  S
O178       Zr197   2.398       .  S
Zr179       O204   2.446       .  S
Zr179       O198   2.427       .  S
Zr179       O206   2.410       .  S
Zr179       O194   2.410       .  S
Zr179       O185   2.394       .  S
Zr179       O186   2.402       .  S
Zr179       O187   2.379       .  S
Zr179       O188   2.378       .  S
Zr180       O199   2.436       .  S
Zr180       O192   2.436       .  S
Zr180       O193   2.477       .  S
Zr180       O186   2.406       .  S
Zr180       O187   2.396       .  S
Zr181       O183   2.434       .  S
Zr181       O205   2.435       .  S
Zr181       O207   2.477       .  S
Zr181       O185   2.393       .  S
Zr181       O188   2.395       .  S
Zr182       O208   2.437       .  S
Zr182       O209   2.434       .  S
Zr182       O184   2.436       .  S
Zr182       O185   2.394       .  S
Zr182       O186   2.391       .  S
O183        H220   0.990       .  S
O184        H215   0.990       .  S
O184        H229   0.990       .  S
O186        H212   0.964       .  S
O187       Zr197   2.374       .  S
O188       Zr197   2.381       .  S
O188        H213   0.970       .  S
C189       C1668   1.485       .  S
C190       C1692   1.492       .  S
C191       C1647   1.494       .  S
O192        H228   0.990       .  S
O193        C195   1.294       .  A
O194        C195   1.282       .  A
C195       C2028   1.491       .  S
O196       Zr197   2.440       .  S
O196        H225   0.991       .  S
Zr197       O200   2.439       .  S
Zr197       O201   2.438       .  S
Zr197       O202   2.427       .  S
O198        C203   1.284       .  A
O199        H216   0.990       .  S
O199        H231   0.991       .  S
O200        H217   0.990       .  S
O201        H221   0.990       .  S
O201        H230   0.990       .  S
O202        C203   1.284       .  A
C203       C1716   1.481       .  S
O204        H223   0.991       .  S
O204        H227   0.990       .  S
O205        H219   0.990       .  S
O205        H226   0.990       .  S
O206        C210   1.282       .  A
O207        C210   1.292       .  A
O208        H218   0.990       .  S
O209        H222   0.989       .  S
C210       C1743   1.499       .  S
Zr233       O234   2.442       .  S
Zr233       O235   2.438       .  S
Zr233       O236   2.412       .  S
Zr233       O239   2.396       .  S
Zr233       O241   2.375       .  S
Zr233       O242   2.371       .  S
Zr233       O243   2.401       .  S
Zr233       O244   2.399       .  S
O234        H290   0.991       .  S
O234        H298   0.990       .  S
O235        C255   1.285       .  A
O236        C257   1.280       .  A
O237       Zr247   2.434       .  S
O237        C256   1.284       .  A
O238       Zr246   2.453       .  S
O238        C257   1.288       .  A
O239        C256   1.279       .  A
O240       Zr248   2.422       .  S
O240        C255   1.282       .  A
O241       Zr246   2.398       .  S
O241       Zr248   2.381       .  S
O242       Zr247   2.389       .  S
O242       Zr248   2.373       .  S
O242        H277   0.972       .  S
O243       Zr246   2.397       .  S
O243       Zr263   2.398       .  S
O243        H280   0.965       .  S
O244       Zr247   2.398       .  S
O244       Zr263   2.395       .  S
Zr245       O270   2.443       .  S
Zr245       O264   2.421       .  S
Zr245       O272   2.408       .  S
Zr245       O260   2.400       .  S
Zr245       O251   2.392       .  S
Zr245       O252   2.402       .  S
Zr245       O253   2.372       .  S
Zr245       O254   2.377       .  S
Zr246       O265   2.436       .  S
Zr246       O258   2.435       .  S
Zr246       O259   2.440       .  S
Zr246       O252   2.405       .  S
Zr246       O253   2.385       .  S
Zr247       O249   2.435       .  S
Zr247       O271   2.436       .  S
Zr247       O273   2.438       .  S
Zr247       O251   2.392       .  S
Zr247       O254   2.392       .  S
Zr248       O274   2.437       .  S
Zr248       O275   2.436       .  S
Zr248       O250   2.435       .  S
Zr248       O251   2.396       .  S
Zr248       O252   2.394       .  S
O249        H286   0.991       .  S
O250        H281   0.990       .  S
O250        H295   0.990       .  S
O252        H278   0.965       .  S
O253       Zr263   2.366       .  S
O254       Zr263   2.374       .  S
O254        H279   0.968       .  S
C255       C1527   1.482       .  S
C256       C1548   1.478       .  S
C257       C1575   1.485       .  S
O258        H294   0.991       .  S
O259        C261   1.287       .  A
O260        C261   1.280       .  A
C261       C1596   1.471       .  S
O262       Zr263   2.438       .  S
O262        H291   0.990       .  S
Zr263       O266   2.438       .  S
Zr263       O267   2.437       .  S
Zr263       O268   2.432       .  S
O264        C269   1.283       .  A
O265        H282   0.990       .  S
O265        H297   0.990       .  S
O266        H283   0.990       .  S
O267        H287   0.990       .  S
O267        H296   0.990       .  S
O268        C269   1.285       .  A
C269       C1623   1.485       .  S
O270        H289   0.991       .  S
O270        H293   0.990       .  S
O271        H285   0.990       .  S
O271        H292   0.990       .  S
O272        C276   1.282       .  A
O273        C276   1.286       .  A
O274        H284   0.990       .  S
O275        H288   0.990       .  S
C276       C2007   1.481       .  S
N299        C304   1.352       .  A
N299        C303   1.350       .  A
N299        H331   1.040       .  S
N300        C307   1.350       .  A
N300        C308   1.351   1_566  A
N301        C306   1.356       .  A
N301        C305   1.356       .  A
N301        H332   1.039       .  S
N302        C309   1.350       .  A
N302        C310   1.348   1_565  A
C303        C311   1.388       .  A
C303        C319   1.410       .  A
C304        C320   1.410       .  A
C304        C312   1.386       .  A
C305        C313   1.387       .  A
C305        C322   1.421       .  A
C306        C321   1.420       .  A
C306        C314   1.386       .  A
C307        C319   1.409       .  A
C307        C315   1.385   1_556  A
C308        C322   1.415   1_554  A
C308        C316   1.389       .  A
C309        C317   1.384       .  A
C309        C320   1.407       .  A
C310        C318   1.388       .  A
C310        C321   1.411       .  A
C311        C312   1.372       .  A
C311        H323   1.082       .  S
C312        H324   1.082       .  S
C313        C314   1.379       .  A
C313        H325   1.082       .  S
C314        H326   1.082       .  S
C315        C316   1.372   1_565  A
C315        H327   1.083       .  S
C316        H328   1.082       .  S
C317        C318   1.373   1_565  A
C317        H329   1.083       .  S
C318        H330   1.082       .  S
C319       C1599   1.473   1_556  S
C320       C1500   1.478       .  S
C321       C1476   1.484       .  S
C322       C1980   1.489   1_556  S
N333        C338   1.353   1_655  A
N333        C337   1.353       .  A
N333        H365   1.036       .  S
N334        C341   1.353       .  A
N334        C342   1.352       .  A
N335        C340   1.353   1_655  A
N335        C339   1.353       .  A
N335        H366   1.037       .  S
N336        C343   1.352       .  A
N336        C344   1.351       .  A
C337        C345   1.388   1_556  A
C337        C353   1.417       .  A
C338        C354   1.415       .  A
C338        C346   1.386   1_556  A
C339        C347   1.388       .  A
C339        C356   1.416       .  A
C340        C355   1.415       .  A
C340        C348   1.387       .  A
C341        C353   1.416       .  A
C341        C349   1.386       .  A
C342        C356   1.416       .  A
C342        C350   1.386       .  A
C343        C351   1.386       .  A
C343        C354   1.411       .  A
C344        C352   1.387       .  A
C344        C355   1.413       .  A
C345        C346   1.376   1_655  A
C345        H357   1.082       .  S
C346        H358   1.082       .  S
C347        C348   1.374   1_655  A
C347        H359   1.082       .  S
C348        H360   1.082       .  S
C349        C350   1.374       .  A
C349        H361   1.082       .  S
C350        H362   1.082       .  S
C351        C352   1.368       .  A
C351        H363   1.082       .  S
C352        H364   1.082       .  S
C353       C1863   1.486   1_556  S
C354       C1959   1.482   1_556  S
C355       C1452   1.484       .  S
C356       C1428   1.485       .  S
N367        C372   1.355       .  A
N367        C371   1.355   1_565  A
N367        H399   1.038       .  S
N368        C375   1.354       .  A
N368        C376   1.355       .  A
N369        C374   1.354       .  A
N369        C373   1.354   1_565  A
N369        H400   1.037       .  S
N370        C377   1.353       .  A
N370        C378   1.353       .  A
C371        C379   1.387   1_556  A
C371        C387   1.419       .  A
C372        C388   1.420       .  A
C372        C380   1.387   1_556  A
C373        C381   1.387       .  A
C373        C390   1.419       .  A
C374        C389   1.417       .  A
C374        C382   1.386       .  A
C375        C387   1.417       .  A
C375        C383   1.386       .  A
C376        C390   1.418       .  A
C376        C384   1.386       .  A
C377        C385   1.387       .  A
C377        C388   1.415       .  A
C378        C386   1.386       .  A
C378        C389   1.415       .  A
C379        C380   1.379   1_545  A
C379        H391   1.082       .  S
C380        H392   1.082       .  S
C381        C382   1.378   1_545  A
C381        H393   1.082       .  S
C382        H394   1.082       .  S
C383        C384   1.372       .  A
C383        H395   1.082       .  S
C384        H396   1.082       .  S
C385        C386   1.372       .  A
C385        H397   1.082       .  S
C386        H398   1.082       .  S
C387       C1836   1.493   1_556  S
C388       C1740   1.492   1_556  S
C389       C1380   1.488       .  S
C390       C1404   1.494       .  S
N401        C406   1.354       .  A
N401        C405   1.354       .  A
N401        H433   1.037       .  S
N402        C409   1.352   1_656  A
N402        C410   1.352   1_556  A
N403        C408   1.355       .  A
N403        C407   1.355       .  A
N403        H434   1.036       .  S
N404        C411   1.353   1_655  A
N404        C412   1.353       .  A
C405        C413   1.387       .  A
C405        C421   1.417       .  A
C406        C422   1.417       .  A
C406        C414   1.387       .  A
C407        C415   1.387       .  A
C407        C424   1.419       .  A
C408        C423   1.418       .  A
C408        C416   1.387       .  A
C409        C421   1.414   1_554  A
C409        C417   1.387       .  A
C410        C424   1.415   1_554  A
C410        C418   1.386       .  A
C411        C419   1.386       .  A
C411        C422   1.416       .  A
C412        C420   1.387       .  A
C412        C423   1.416       .  A
C413        C414   1.374       .  A
C413        H425   1.082       .  S
C414        H426   1.082       .  S
C415        C416   1.374       .  A
C415        H427   1.082       .  S
C416        H428   1.082       .  S
C417        C418   1.371   1_455  A
C417        H429   1.082       .  S
C418        H430   1.082       .  S
C419        C420   1.372   1_455  A
C419        H431   1.082       .  S
C420        H432   1.082       .  S
C421       C1620   1.484   1_556  S
C422       C1332   1.488       .  S
C423       C1356   1.487       .  S
C424       C1719   1.489   1_556  S
Zr435       O436   2.441       .  S
Zr435       O437   2.434       .  S
Zr435       O438   2.417       .  S
Zr435       O441   2.398       .  S
Zr435       O443   2.374       .  S
Zr435       O444   2.375       .  S
Zr435       O445   2.401       .  S
Zr435       O446   2.402       .  S
O436        H492   0.991       .  S
O436        H500   0.990       .  S
O437        C457   1.284       .  A
O438        C459   1.282       .  A
O439       Zr449   2.447       .  S
O439        C458   1.287       .  A
O440       Zr448   2.436       .  S
O440        C459   1.285       .  A
O441        C458   1.281       .  A
O442       Zr450   2.435       .  S
O442        C457   1.285       .  A
O443       Zr448   2.399       .  S
O443       Zr450   2.375       .  S
O444       Zr449   2.395       .  S
O444       Zr450   2.367       .  S
O444        H479   0.971       .  S
O445       Zr448   2.404       .  S
O445       Zr465   2.397       .  S
O445        H482   0.965       .  S
O446       Zr449   2.400       .  S
O446       Zr465   2.392       .  S
Zr447       O472   2.445       .  S
Zr447       O466   2.428       .  S
Zr447       O474   2.402       .  S
Zr447       O462   2.388       .  S
Zr447       O453   2.393       .  S
Zr447       O454   2.399       .  S
Zr447       O455   2.374       .  S
Zr447       O456   2.374       .  S
Zr448       O467   2.437       .  S
Zr448       O460   2.434       .  S
Zr448       O461   2.459       .  S
Zr448       O454   2.398       .  S
Zr448       O455   2.388       .  S
Zr449       O451   2.434       .  S
Zr449       O473   2.437       .  S
Zr449       O475   2.459       .  S
Zr449       O453   2.393       .  S
Zr449       O456   2.390       .  S
Zr450       O476   2.435       .  S
Zr450       O477   2.435       .  S
Zr450       O452   2.436       .  S
Zr450       O453   2.401       .  S
Zr450       O454   2.400       .  S
O451        H488   0.990       .  S
O452        H483   0.990       .  S
O452        H497   0.990       .  S
O454        H480   0.963       .  S
O455       Zr465   2.374       .  S
O456       Zr465   2.374       .  S
O456        H481   0.969       .  S
C457       C1335   1.489       .  S
C458       C1503   1.481       .  S
C459       C1311   1.482       .  S
O460        H496   0.990       .  S
O461        C463   1.289       .  A
O462        C463   1.278       .  A
C463       C1239   1.482       .  S
O464       Zr465   2.435       .  S
O464        H493   0.990       .  S
Zr465       O468   2.435       .  S
Zr465       O469   2.443       .  S
Zr465       O470   2.422       .  S
O466        C471   1.283       .  A
O467        H484   0.990       .  S
O467        H499   0.990       .  S
O468        H485   0.990       .  S
O469        H489   0.990       .  S
O469        H498   0.989       .  S
O470        C471   1.283       .  A
C471       C1260   1.482       .  S
O472        H491   0.990       .  S
O472        H495   0.990       .  S
O473        H487   0.990       .  S
O473        H494   0.990       .  S
O474        C478   1.280       .  A
O475        C478   1.290       .  A
O476        H486   0.990       .  S
O477        H490   0.990       .  S
C478       C1284   1.488       .  S
N501        C506   1.354   1_655  A
N501        C505   1.354       .  A
N501        H533   1.039       .  S
N502        C509   1.355   1_545  A
N502        C510   1.354       .  A
N503        C508   1.356   1_655  A
N503        C507   1.354       .  A
N503        H534   1.037       .  S
N504        C511   1.350   1_545  A
N504        C512   1.351       .  A
C505        C513   1.389       .  A
C505        C521   1.416       .  A
C506        C522   1.413       .  A
C506        C514   1.387   1_455  A
C507        C515   1.388       .  A
C507        C524   1.419       .  A
C508        C523   1.418       .  A
C508        C516   1.386       .  A
C509        C521   1.417       .  A
C509        C517   1.386       .  A
C510        C524   1.419       .  A
C510        C518   1.387       .  A
C511        C519   1.386       .  A
C511        C522   1.410       .  A
C512        C520   1.387       .  A
C512        C523   1.414       .  A
C513        C514   1.370       .  A
C513        H525   1.082       .  S
C514        H526   1.082   1_655  S
C515        C516   1.375   1_655  A
C515        H527   1.082       .  S
C516        H528   1.082       .  S
C517        C518   1.374   1_565  A
C517        H529   1.082       .  S
C518        H530   1.082       .  S
C519        C520   1.370   1_565  A
C519        H531   1.083       .  S
C520        H532   1.082       .  S
C521       C1164   1.491       .  S
C522       C1308   1.479       .  S
C523       C1212   1.488       .  S
C524       C1188   1.488       .  S
Zr535       O536   2.441       .  S
Zr535       O537   2.433       .  S
Zr535       O538   2.424       .  S
Zr535       O541   2.430       .  S
Zr535       O543   2.379       .  S
Zr535       O544   2.379       .  S
Zr535       O545   2.407       .  S
Zr535       O546   2.397       .  S
O536        H592   0.990       .  S
O536        H600   0.990       .  S
O537        C557   1.284       .  A
O538        C559   1.283       .  A
O539       Zr549   2.462       .  S
O539        C558   1.290       .  A
O540       Zr548   2.438       .  S
O540        C559   1.286       .  A
O541        C558   1.285       .  A
O542       Zr550   2.417       .  S
O542        C557   1.281       .  A
O543       Zr548   2.398       .  S
O543       Zr550   2.375       .  S
O544       Zr549   2.397       .  S
O544       Zr550   2.378       .  S
O544        H579   0.964       .  S
O545       Zr548   2.408       .  S
O545       Zr565   2.388       .  S
O545        H582   0.965       .  S
O546       Zr549   2.389       .  S
O546       Zr565   2.393       .  S
Zr547       O572   2.444       .  S
Zr547       O566   2.448       .  S
Zr547       O574   2.406       .  S
Zr547       O562   2.430       .  S
Zr547       O553   2.405       .  S
Zr547       O554   2.407       .  S
Zr547       O555   2.372       .  S
Zr547       O556   2.382       .  S
Zr548       O567   2.436       .  S
Zr548       O560   2.436       .  S
Zr548       O561   2.450       .  S
Zr548       O554   2.402       .  S
Zr548       O555   2.401       .  S
Zr549       O551   2.434       .  S
Zr549       O573   2.437       .  S
Zr549       O575   2.447       .  S
Zr549       O553   2.394       .  S
Zr549       O556   2.403       .  S
Zr550       O576   2.435       .  S
Zr550       O577   2.436       .  S
Zr550       O552   2.437       .  S
Zr550       O553   2.391       .  S
Zr550       O554   2.390       .  S
O551        H588   0.990       .  S
O552        H583   0.990       .  S
O552        H597   0.990       .  S
O554        H580   0.965       .  S
O555       Zr565   2.383       .  S
O556       Zr565   2.379       .  S
O556        H581   0.964       .  S
C557       C1116   1.484       .  S
C558       C1143   1.492       .  S
C559       C1095   1.482       .  S
O560        H596   0.990       .  S
O561        C563   1.286       .  A
O562        C563   1.281       .  A
C563       C1215   1.479       .  S
O564       Zr565   2.438       .  S
O564        H593   0.990       .  S
Zr565       O568   2.437       .  S
Zr565       O569   2.440       .  S
Zr565       O570   2.413       .  S
O566        C571   1.285       .  A
O567        H584   0.990       .  S
O567        H599   0.990       .  S
O568        H585   0.990       .  S
O569        H589   0.990       .  S
O569        H598   0.990       .  S
O570        C571   1.281       .  A
C571       C1479   1.490       .  S
O572        H591   0.991       .  S
O572        H595   0.991       .  S
O573        H587   0.990       .  S
O573        H594   0.990       .  S
O574        C578   1.280       .  A
O575        C578   1.288       .  A
O576        H586   0.990       .  S
O577        H590   0.990       .  S
C578       C1455   1.483       .  S
Zr601       O602   2.442       .  S
Zr601       O603   2.443       .  S
Zr601       O604   2.423       .  S
Zr601       O607   2.408       .  S
Zr601       O609   2.372       .  S
Zr601       O610   2.381       .  S
Zr601       O611   2.404       .  S
Zr601       O612   2.400       .  S
O602        H658   0.991       .  S
O602        H666   0.991       .  S
O603        C623   1.285       .  A
O604        C625   1.282       .  A
O605       Zr615   2.468       .  S
O605        C624   1.291       .  A
O606       Zr614   2.437       .  S
O606        C625   1.285       .  A
O607        C624   1.282       .  A
O608       Zr616   2.422       .  S
O608        C623   1.282       .  A
O609       Zr614   2.396       .  S
O609       Zr616   2.376       .  S
O610       Zr615   2.400       .  S
O610       Zr616   2.380       .  S
O610        H645   0.962       .  S
O611       Zr614   2.397       .  S
O611       Zr631   2.399       .  S
O611        H648   0.967       .  S
O612       Zr615   2.390       .  S
O612       Zr631   2.390       .  S
Zr613       O638   2.442       .  S
Zr613       O632   2.432       .  S
Zr613       O640   2.434       .  S
Zr613       O628   2.429       .  S
Zr613       O619   2.407       .  S
Zr613       O620   2.403       .  S
Zr613       O621   2.378       .  S
Zr613       O622   2.385       .  S
Zr614       O633   2.436       .  S
Zr614       O626   2.434       .  S
Zr614       O627   2.442       .  S
Zr614       O620   2.402       .  S
Zr614       O621   2.395       .  S
Zr615       O617   2.435       .  S
Zr615       O639   2.435       .  S
Zr615       O641   2.454       .  S
Zr615       O619   2.406       .  S
Zr615       O622   2.403       .  S
Zr616       O642   2.436       .  S
Zr616       O643   2.435       .  S
Zr616       O618   2.437       .  S
Zr616       O619   2.402       .  S
Zr616       O620   2.388       .  S
O617        H654   0.990       .  S
O618        H649   0.990       .  S
O618        H663   0.990       .  S
O620        H646   0.963       .  S
O621       Zr631   2.380       .  S
O622       Zr631   2.379       .  S
O622        H647   0.969       .  S
C623       C1047   1.486       .  S
C624       C1071   1.494       .  S
C625       C1023   1.480       .  S
O626        H662   0.990       .  S
O627        C629   1.286       .  A
O628        C629   1.285       .  A
C629       C1191   1.483       .  S
O630       Zr631   2.440       .  S
O630        H659   0.990       .  S
Zr631       O634   2.436       .  S
Zr631       O635   2.440       .  S
Zr631       O636   2.429       .  S
O632        C637   1.283       .  A
O633        H650   0.990       .  S
O633        H665   0.991       .  S
O634        H651   0.990       .  S
O635        H655   0.989       .  S
O635        H664   0.990       .  S
O636        C637   1.284       .  A
C637       C1431   1.486       .  S
O638        H657   0.991       .  S
O638        H661   0.990       .  S
O639        H653   0.990       .  S
O639        H660   0.990       .  S
O640        C644   1.284       .  A
O641        C644   1.288       .  A
O642        H652   0.991       .  S
O643        H656   0.990       .  S
C644       C1407   1.496       .  S
Zr667       O668   2.442       .  S
Zr667       O669   2.439       .  S
Zr667       O670   2.414       .  S
Zr667       O673   2.402       .  S
Zr667       O675   2.377       .  S
Zr667       O676   2.375       .  S
Zr667       O677   2.400       .  S
Zr667       O678   2.402       .  S
O668        H724   0.991       .  S
O668        H732   0.990       .  S
O669        C689   1.285       .  A
O670        C691   1.281       .  A
O671       Zr681   2.463       .  S
O671        C690   1.289       .  A
O672       Zr680   2.466       .  S
O672        C691   1.291       .  A
O673        C690   1.281       .  A
O674       Zr682   2.414       .  S
O674        C689   1.281       .  A
O675       Zr680   2.399       .  S
O675       Zr682   2.380       .  S
O676       Zr681   2.392       .  S
O676       Zr682   2.376       .  S
O676        H711   0.965       .  S
O677       Zr680   2.399       .  S
O677       Zr697   2.395       .  S
O677        H714   0.967       .  S
O678       Zr681   2.395       .  S
O678       Zr697   2.403       .  S
Zr679       O704   2.449       .  S
Zr679       O698   2.438       .  S
Zr679       O706   2.404       .  S
Zr679       O694   2.419       .  S
Zr679       O685   2.398       .  S
Zr679       O686   2.399       .  S
Zr679       O687   2.372       .  S
Zr679       O688   2.385       .  S
Zr680       O699   2.434       .  S
Zr680       O692   2.434       .  S
Zr680       O693   2.459       .  S
Zr680       O686   2.403       .  S
Zr680       O687   2.394       .  S
Zr681       O683   2.436       .  S
Zr681       O705   2.436       .  S
Zr681       O707   2.453       .  S
Zr681       O685   2.391       .  S
Zr681       O688   2.403       .  S
Zr682       O708   2.437       .  S
Zr682       O709   2.437       .  S
Zr682       O684   2.434       .  S
Zr682       O685   2.385       .  S
Zr682       O686   2.392       .  S
O683        H720   0.991       .  S
O684        H715   0.990       .  S
O684        H729   0.990       .  S
O686        H712   0.963       .  S
O687       Zr697   2.370       .  S
O688       Zr697   2.378       .  S
O688        H713   0.967       .  S
C689        C948   1.486       .  S
C690        C972   1.493       .  S
C691        C999   1.491       .  S
O692        H728   0.990       .  S
O693        C695   1.290       .  A
O694        C695   1.283       .  A
C695       C1383   1.492       .  S
O696       Zr697   2.435       .  S
O696        H725   0.990       .  S
Zr697       O700   2.436       .  S
Zr697       O701   2.436       .  S
Zr697       O702   2.436       .  S
O698        C703   1.286       .  A
O699        H716   0.990       .  S
O699        H731   0.990       .  S
O700        H717   0.990       .  S
O701        H721   0.991       .  S
O701        H730   0.990       .  S
O702        C703   1.285       .  A
C703       C1359   1.493       .  S
O704        H723   0.991       .  S
O704        H727   0.989       .  S
O705        H719   0.990       .  S
O705        H726   0.990       .  S
O706        C710   1.281       .  A
O707        C710   1.289       .  A
O708        H718   0.991       .  S
O709        H722   0.990       .  S
C710       C1167   1.485       .  S
N733        C738   1.359       .  A
N733        C737   1.357       .  A
N733        H765   1.038       .  S
N734        C741   1.353       .  A
N734        C742   1.355       .  A
N735        C740   1.354       .  A
N735        C739   1.354       .  A
N735        H766   1.038       .  S
N736        C743   1.351       .  A
N736        C744   1.352       .  A
C737        C745   1.388       .  A
C737        C753   1.423       .  A
C738        C754   1.423       .  A
C738        C746   1.386       .  A
C739        C747   1.388       .  A
C739        C756   1.416       .  A
C740        C755   1.415       .  A
C740        C748   1.387       .  A
C741        C753   1.419       .  A
C741        C749   1.388       .  A
C742        C756   1.416       .  A
C742        C750   1.385       .  A
C743        C751   1.387       .  A
C743        C754   1.414       .  A
C744        C752   1.386       .  A
C744        C755   1.412       .  A
C745        C746   1.377       .  A
C745        H757   1.082       .  S
C746        H758   1.082       .  S
C747        C748   1.371       .  A
C747        H759   1.082       .  S
C748        H760   1.082       .  S
C749        C750   1.373       .  A
C749        H761   1.082       .  S
C750        H762   1.082       .  S
C751        C752   1.371       .  A
C751        H763   1.082       .  S
C752        H764   1.082       .  S
C753       C1068   1.493       .  S
C754       C1140   1.493       .  S
C755       C1287   1.484       .  S
C756        C996   1.488       .  S
N767        C772   1.351       .  A
N767        C771   1.353       .  A
N767        H799   1.037       .  S
N768        C775   1.352       .  A
N768        C776   1.351       .  A
N769        C774   1.354       .  A
N769        C773   1.356       .  A
N769        H800   1.034       .  S
N770        C777   1.354       .  A
N770        C778   1.353       .  A
C771        C779   1.386       .  A
C771        C787   1.413       .  A
C772        C788   1.413       .  A
C772        C780   1.387       .  A
C773        C781   1.388       .  A
C773        C790   1.422       .  A
C774        C789   1.420       .  A
C774        C782   1.387       .  A
C775        C787   1.413       .  A
C775        C783   1.386       .  A
C776        C790   1.416       .  A
C776        C784   1.388       .  A
C777        C785   1.385       .  A
C777        C788   1.415       .  A
C778        C786   1.388       .  A
C778        C789   1.418       .  A
C779        C780   1.376       .  A
C779        H791   1.082       .  S
C780        H792   1.082       .  S
C781        C782   1.378       .  A
C781        H793   1.082       .  S
C782        H794   1.082       .  S
C783        C784   1.371       .  A
C783        H795   1.082       .  S
C784        H796   1.082       .  S
C785        C786   1.374       .  A
C785        H797   1.082       .  S
C786        H798   1.082       .  S
C787       C1572   1.483       .  S
C788       C1935   1.484       .  S
C789       C1812   1.487       .  S
C790       C1695   1.490       .  S
N801        C806   1.352       .  A
N801        C805   1.356       .  A
N801        H833   1.037       .  S
N802        C809   1.353       .  A
N802        C810   1.351       .  A
N803        C808   1.357       .  A
N803        C807   1.353       .  A
N803        H834   1.037       .  S
N804        C811   1.352       .  A
N804        C812   1.355       .  A
C805        C813   1.386       .  A
C805        C821   1.418       .  A
C806        C822   1.417       .  A
C806        C814   1.389       .  A
C807        C815   1.387       .  A
C807        C824   1.417       .  A
C808        C823   1.420       .  A
C808        C816   1.387       .  A
C809        C821   1.412       .  A
C809        C817   1.386       .  A
C810        C824   1.413       .  A
C810        C818   1.387       .  A
C811        C819   1.388       .  A
C811        C822   1.417       .  A
C812        C820   1.385       .  A
C812        C823   1.417       .  A
C813        C814   1.377       .  A
C813        H825   1.082       .  S
C814        H826   1.082       .  S
C815        C816   1.377       .  A
C815        H827   1.082       .  S
C816        H828   1.082       .  S
C817        C818   1.370       .  A
C817        H829   1.082       .  S
C818        H830   1.082       .  S
C819        C820   1.371       .  A
C819        H831   1.082       .  S
C820        H832   1.082       .  S
C821        C975   1.491       .  S
C822       C1020   1.482       .  S
C823       C1788   1.500       .  S
C824       C1644   1.483       .  S
N835        C840   1.354       .  A
N835        C839   1.354       .  A
N835        H867   1.039       .  S
N836        C843   1.352       .  A
N836        C844   1.352       .  A
N837        C842   1.353       .  A
N837        C841   1.352       .  A
N837        H868   1.037       .  S
N838        C845   1.352       .  A
N838        C846   1.354       .  A
C839        C847   1.387       .  A
C839        C855   1.415       .  A
C840        C856   1.415       .  A
C840        C848   1.388       .  A
C841        C849   1.387       .  A
C841        C858   1.413       .  A
C842        C857   1.417       .  A
C842        C850   1.388       .  A
C843        C855   1.412       .  A
C843        C851   1.386       .  A
C844        C858   1.413       .  A
C844        C852   1.387       .  A
C845        C853   1.386       .  A
C845        C856   1.415       .  A
C846        C854   1.386       .  A
C846        C857   1.417       .  A
C847        C848   1.376       .  A
C847        H859   1.083       .  S
C848        H860   1.082       .  S
C849        C850   1.375       .  A
C849        H861   1.082       .  S
C850        H862   1.082       .  S
C851        C852   1.371       .  A
C851        H863   1.082       .  S
C852        H864   1.082       .  S
C853        C854   1.373       .  A
C853        H865   1.082       .  S
C854        H866   1.082       .  S
C855        C951   1.482       .  S
C856       C1671   1.484       .  S
C857       C1524   1.490       .  S
C858       C1263   1.480       .  S
N869        C874   1.352       .  A
N869        C873   1.353       .  A
N869        H901   1.039       .  S
N870        C877   1.348       .  A
N870        C878   1.348       .  A
N871        C876   1.349       .  A
N871        C875   1.350       .  A
N871        H902   1.039       .  S
N872        C879   1.350       .  A
N872        C880   1.350       .  A
C873        C881   1.387       .  A
C873        C889   1.414       .  A
C874        C890   1.413       .  A
C874        C882   1.387       .  A
C875        C883   1.388       .  A
C875        C892   1.407       .  A
C876        C891   1.408       .  A
C876        C884   1.388       .  A
C877        C889   1.410       .  A
C877        C885   1.388       .  A
C878        C892   1.407       .  A
C878        C886   1.385       .  A
C879        C887   1.387       .  A
C879        C890   1.412       .  A
C880        C888   1.385       .  A
C880        C891   1.409       .  A
C881        C882   1.375       .  A
C881        H893   1.082       .  S
C882        H894   1.082       .  S
C883        C884   1.370       .  A
C883        H895   1.082       .  S
C884        H896   1.082       .  S
C885        C886   1.372       .  A
C885        H897   1.082       .  S
C886        H898   1.082       .  S
C887        C888   1.375       .  A
C887        H899   1.082       .  S
C888        H900   1.082       .  S
C889       C1884   1.480       .  S
C890       C1119   1.480       .  S
C891       C1236   1.472       .  S
C892       C1551   1.473       .  S
N903        C908   1.353       .  A
N903        C907   1.353       .  A
N903        H935   1.037       .  S
N904        C911   1.354       .  A
N904        C912   1.354       .  A
N905        C910   1.353       .  A
N905        C909   1.353       .  A
N905        H936   1.038       .  S
N906        C913   1.350       .  A
N906        C914   1.351       .  A
C907        C915   1.389       .  A
C907        C923   1.418       .  A
C908        C924   1.414       .  A
C908        C916   1.386       .  A
C909        C917   1.387       .  A
C909        C926   1.415       .  A
C910        C925   1.414       .  A
C910        C918   1.386       .  A
C911        C923   1.419       .  A
C911        C919   1.387       .  A
C912        C926   1.417       .  A
C912        C920   1.385       .  A
C913        C921   1.387       .  A
C913        C924   1.410       .  A
C914        C922   1.386       .  A
C914        C925   1.410       .  A
C915        C916   1.377       .  A
C915        H927   1.082       .  S
C916        H928   1.082       .  S
C917        C918   1.375       .  A
C917        H929   1.082       .  S
C918        H930   1.082       .  S
C919        C920   1.372       .  A
C919        H931   1.082       .  S
C920        H932   1.082       .  S
C921        C922   1.369       .  A
C921        H933   1.082       .  S
C922        H934   1.082       .  S
C923       C1044   1.490       .  S
C924       C1092   1.478       .  S
C925       C1911   1.484       .  S
C926       C1767   1.488       .  S
C937        C938   1.401       .  A
C937        C942   1.404       .  A
C937        H953   1.083       .  S
C938        C939   1.404       .  A
C938        H954   1.084       .  S
C939        C949   1.406       .  A
C939        C940   1.412       .  A
C940        C946   1.410       .  A
C940        C941   1.412       .  A
C941        C943   1.413       .  A
C941        C942   1.412       .  A
C942        C950   1.405       .  A
C943        C952   1.400       .  A
C943        C944   1.402       .  A
C944        C945   1.397       .  A
C944        H955   1.084       .  S
C945        C946   1.403       .  A
C945        H956   1.084       .  S
C946        C947   1.399       .  A
C947        C948   1.409       .  A
C947        H957   1.084       .  S
C948        C949   1.409       .  A
C949        H958   1.084       .  S
C950        C951   1.404       .  A
C950        H959   1.084       .  S
C951        C952   1.401       .  A
C952        H960   1.084       .  S
C961        C962   1.394       .  A
C961        C966   1.401       .  A
C961        H977   1.084       .  S
C962        C963   1.403       .  A
C962        H978   1.084       .  S
C963        C973   1.393       .  A
C963        C964   1.407       .  A
C964        C970   1.414       .  A
C964        C965   1.414       .  A
C965        C967   1.410       .  A
C965        C966   1.414       .  A
C966        C974   1.399       .  A
C967        C976   1.409       .  A
C967        C968   1.406       .  A
C968        C969   1.405       .  A
C968        H979   1.083       .  S
C969        C970   1.406       .  A
C969        H980   1.083       .  S
C970        C971   1.415       .  A
C971        C972   1.412       .  A
C971        H981   1.084       .  S
C972        C973   1.411       .  A
C973        H982   1.084       .  S
C974        C975   1.401       .  A
C974        H983   1.085       .  S
C975        C976   1.410       .  A
C976        H984   1.084       .  S
C985        C986   1.399       .  A
C985        C990   1.404       .  A
C985       H1001   1.084       .  S
C986        C987   1.403       .  A
C986       H1002   1.084       .  S
C987        C997   1.403       .  A
C987        C988   1.413       .  A
C988        C994   1.412       .  A
C988        C989   1.414       .  A
C989        C991   1.413       .  A
C989        C990   1.409       .  A
C990        C998   1.401       .  A
C991       C1000   1.410       .  A
C991        C992   1.404       .  A
C992        C993   1.402       .  A
C992       H1003   1.083       .  S
C993        C994   1.404       .  A
C993       H1004   1.083       .  S
C994        C995   1.406       .  A
C995        C996   1.405       .  A
C995       H1005   1.084       .  S
C996        C997   1.404       .  A
C997       H1006   1.084       .  S
C998        C999   1.412       .  A
C998       H1007   1.084       .  S
C999       C1000   1.408       .  A
C1000      H1008   1.084       .  S
C1009      C1010   1.399       .  A
C1009      C1014   1.404       .  A
C1009      H1025   1.083       .  S
C1010      C1011   1.403       .  A
C1010      H1026   1.083       .  S
C1011      C1021   1.402       .  A
C1011      C1012   1.412       .  A
C1012      C1018   1.412       .  A
C1012      C1013   1.411       .  A
C1013      C1015   1.410       .  A
C1013      C1014   1.412       .  A
C1014      C1022   1.404       .  A
C1015      C1024   1.400       .  A
C1015      C1016   1.404       .  A
C1016      C1017   1.398       .  A
C1016      H1027   1.084       .  S
C1017      C1018   1.403       .  A
C1017      H1028   1.084       .  S
C1018      C1019   1.401       .  A
C1019      C1020   1.403       .  A
C1019      H1029   1.085       .  S
C1020      C1021   1.403       .  A
C1021      H1030   1.084       .  S
C1022      C1023   1.407       .  A
C1022      H1031   1.084       .  S
C1023      C1024   1.408       .  A
C1024      H1032   1.084       .  S
C1033      C1034   1.401       .  A
C1033      C1038   1.404       .  A
C1033      H1049   1.084       .  S
C1034      C1035   1.404       .  A
C1034      H1050   1.084       .  S
C1035      C1045   1.405       .  A
C1035      C1036   1.412       .  A
C1036      C1042   1.412       .  A
C1036      C1037   1.413       .  A
C1037      C1039   1.411       .  A
C1037      C1038   1.412       .  A
C1038      C1046   1.406       .  A
C1039      C1048   1.403       .  A
C1039      C1040   1.404       .  A
C1040      C1041   1.398       .  A
C1040      H1051   1.084       .  S
C1041      C1042   1.402       .  A
C1041      H1052   1.084       .  S
C1042      C1043   1.402       .  A
C1043      C1044   1.404       .  A
C1043      H1053   1.084       .  S
C1044      C1045   1.406       .  A
C1045      H1054   1.084       .  S
C1046      C1047   1.408       .  A
C1046      H1055   1.084       .  S
C1047      C1048   1.409       .  A
C1048      H1056   1.084       .  S
C1057      C1058   1.397       .  A
C1057      C1062   1.404       .  A
C1057      H1073   1.084       .  S
C1058      C1059   1.402       .  A
C1058      H1074   1.084       .  S
C1059      C1069   1.402       .  A
C1059      C1060   1.413       .  A
C1060      C1066   1.412       .  A
C1060      C1061   1.416       .  A
C1061      C1063   1.413       .  A
C1061      C1062   1.408       .  A
C1062      C1070   1.399       .  A
C1063      C1072   1.413       .  A
C1063      C1064   1.405       .  A
C1064      C1065   1.404       .  A
C1064      H1075   1.083       .  S
C1065      C1066   1.406       .  A
C1065      H1076   1.083       .  S
C1066      C1067   1.411       .  A
C1067      C1068   1.408       .  A
C1067      H1077   1.084       .  S
C1068      C1069   1.403       .  A
C1069      H1078   1.085       .  S
C1070      C1071   1.412       .  A
C1070      H1079   1.084       .  S
C1071      C1072   1.410       .  A
C1072      H1080   1.084       .  S
C1081      C1082   1.400       .  A
C1081      C1086   1.404       .  A
C1081      H1097   1.084       .  S
C1082      C1083   1.404       .  A
C1082      H1098   1.083       .  S
C1083      C1093   1.404       .  A
C1083      C1084   1.412       .  A
C1084      C1090   1.413       .  A
C1084      C1085   1.410       .  A
C1085      C1087   1.410       .  A
C1085      C1086   1.412       .  A
C1086      C1094   1.405       .  A
C1087      C1096   1.397       .  A
C1087      C1088   1.403       .  A
C1088      C1089   1.396       .  A
C1088      H1099   1.084       .  S
C1089      C1090   1.401       .  A
C1089      H1100   1.084       .  S
C1090      C1091   1.399       .  A
C1091      C1092   1.400       .  A
C1091      H1101   1.085       .  S
C1092      C1093   1.404       .  A
C1093      H1102   1.084       .  S
C1094      C1095   1.408       .  A
C1094      H1103   1.084       .  S
C1095      C1096   1.408       .  A
C1096      H1104   1.084       .  S
C1105      C1106   1.399       .  A
C1105      C1110   1.403       .  A
C1105      H1121   1.084       .  S
C1106      C1107   1.404       .  A
C1106      H1122   1.084       .  S
C1107      C1117   1.401       .  A
C1107      C1108   1.410       .  A
C1108      C1114   1.412       .  A
C1108      C1109   1.411       .  A
C1109      C1111   1.412       .  A
C1109      C1110   1.413       .  A
C1110      C1118   1.402       .  A
C1111      C1120   1.401       .  A
C1111      C1112   1.403       .  A
C1112      C1113   1.399       .  A
C1112      H1123   1.084       .  S
C1113      C1114   1.404       .  A
C1113      H1124   1.084       .  S
C1114      C1115   1.404       .  A
C1115      C1116   1.408       .  A
C1115      H1125   1.084       .  S
C1116      C1117   1.409       .  A
C1117      H1126   1.084       .  S
C1118      C1119   1.403       .  A
C1118      H1127   1.084       .  S
C1119      C1120   1.402       .  A
C1120      H1128   1.084       .  S
C1129      C1130   1.400       .  A
C1129      C1134   1.404       .  A
C1129      H1145   1.084       .  S
C1130      C1131   1.404       .  A
C1130      H1146   1.084       .  S
C1131      C1141   1.405       .  A
C1131      C1132   1.412       .  A
C1132      C1138   1.413       .  A
C1132      C1133   1.417       .  A
C1133      C1135   1.413       .  A
C1133      C1134   1.411       .  A
C1134      C1142   1.405       .  A
C1135      C1144   1.412       .  A
C1135      C1136   1.405       .  A
C1136      C1137   1.403       .  A
C1136      H1147   1.083       .  S
C1137      C1138   1.404       .  A
C1137      H1148   1.083       .  S
C1138      C1139   1.409       .  A
C1139      C1140   1.405       .  A
C1139      H1149   1.084       .  S
C1140      C1141   1.406       .  A
C1141      H1150   1.084       .  S
C1142      C1143   1.410       .  A
C1142      H1151   1.084       .  S
C1143      C1144   1.409       .  A
C1144      H1152   1.084       .  S
C1153      C1154   1.396       .  A
C1153      C1158   1.403       .  A
C1153      H1169   1.084       .  S
C1154      C1155   1.402       .  A
C1154      H1170   1.084       .  S
C1155      C1165   1.401       .  A
C1155      C1156   1.413       .  A
C1156      C1162   1.410       .  A
C1156      C1157   1.412       .  A
C1157      C1159   1.413       .  A
C1157      C1158   1.408       .  A
C1158      C1166   1.396       .  A
C1159      C1168   1.408       .  A
C1159      C1160   1.404       .  A
C1160      C1161   1.401       .  A
C1160      H1171   1.083       .  S
C1161      C1162   1.405       .  A
C1161      H1172   1.083       .  S
C1162      C1163   1.405       .  A
C1163      C1164   1.409       .  A
C1163      H1173   1.084       .  S
C1164      C1165   1.403       .  A
C1165      H1174   1.084       .  S
C1166      C1167   1.410       .  A
C1166      H1175   1.084       .  S
C1167      C1168   1.408       .  A
C1168      H1176   1.084       .  S
C1177      C1178   1.402       .  A
C1177      C1182   1.405       .  A
C1177      H1193   1.083       .  S
C1178      C1179   1.404       .  A
C1178      H1194   1.083       .  S
C1179      C1189   1.406       .  A
C1179      C1180   1.412       .  A
C1180      C1186   1.413       .  A
C1180      C1181   1.413       .  A
C1181      C1183   1.410       .  A
C1181      C1182   1.413       .  A
C1182      C1190   1.409       .  A
C1183      C1192   1.399       .  A
C1183      C1184   1.403       .  A
C1184      C1185   1.398       .  A
C1184      H1195   1.084       .  S
C1185      C1186   1.403       .  A
C1185      H1196   1.083       .  S
C1186      C1187   1.403       .  A
C1187      C1188   1.404       .  A
C1187      H1197   1.084       .  S
C1188      C1189   1.405       .  A
C1189      H1198   1.084       .  S
C1190      C1191   1.409       .  A
C1190      H1199   1.084       .  S
C1191      C1192   1.407       .  A
C1192      H1200   1.085       .  S
C1201      C1202   1.402       .  A
C1201      C1206   1.405       .  A
C1201      H1217   1.083       .  S
C1202      C1203   1.404       .  A
C1202      H1218   1.083       .  S
C1203      C1213   1.407       .  A
C1203      C1204   1.413       .  A
C1204      C1210   1.412       .  A
C1204      C1205   1.414       .  A
C1205      C1207   1.412       .  A
C1205      C1206   1.412       .  A
C1206      C1214   1.407       .  A
C1207      C1216   1.402       .  A
C1207      C1208   1.403       .  A
C1208      C1209   1.398       .  A
C1208      H1219   1.084       .  S
C1209      C1210   1.403       .  A
C1209      H1220   1.084       .  S
C1210      C1211   1.401       .  A
C1211      C1212   1.404       .  A
C1211      H1221   1.085       .  S
C1212      C1213   1.405       .  A
C1213      H1222   1.084       .  S
C1214      C1215   1.407       .  A
C1214      H1223   1.084       .  S
C1215      C1216   1.407       .  A
C1216      H1224   1.085       .  S
C1225      C1226   1.401       .  A
C1225      C1230   1.404       .  A
C1225      H1241   1.083       .  S
C1226      C1227   1.404       .  A
C1226      H1242   1.083       .  S
C1227      C1237   1.402       .  A
C1227      C1228   1.411       .  A
C1228      C1234   1.414       .  A
C1228      C1229   1.409       .  A
C1229      C1231   1.407       .  A
C1229      C1230   1.414       .  A
C1230      C1238   1.408       .  A
C1231      C1240   1.392       .  A
C1231      C1232   1.403       .  A
C1232      C1233   1.394       .  A
C1232      H1243   1.084       .  S
C1233      C1234   1.400       .  A
C1233      H1244   1.084       .  S
C1234      C1235   1.396       .  A
C1235      C1236   1.399       .  A
C1235      H1245   1.085       .  S
C1236      C1237   1.403       .  A
C1237      H1246   1.084       .  S
C1238      C1239   1.407       .  A
C1238      H1247   1.084       .  S
C1239      C1240   1.410       .  A
C1240      H1248   1.084       .  S
C1249      C1250   1.396       .  A
C1249      C1254   1.402       .  A
C1249      H1265   1.084       .  S
C1250      C1251   1.403       .  A
C1250      H1266   1.084       .  S
C1251      C1261   1.397       .  A
C1251      C1252   1.410       .  A
C1252      C1258   1.412       .  A
C1252      C1253   1.411       .  A
C1253      C1255   1.412       .  A
C1253      C1254   1.413       .  A
C1254      C1262   1.400       .  A
C1255      C1264   1.404       .  A
C1255      C1256   1.404       .  A
C1256      C1257   1.401       .  A
C1256      H1267   1.084       .  S
C1257      C1258   1.404       .  A
C1257      H1268   1.084       .  S
C1258      C1259   1.406       .  A
C1259      C1260   1.409       .  A
C1259      H1269   1.084       .  S
C1260      C1261   1.407       .  A
C1261      H1270   1.084       .  S
C1262      C1263   1.401       .  A
C1262      H1271   1.084       .  S
C1263      C1264   1.404       .  A
C1264      H1272   1.084       .  S
C1273      C1274   1.398       .  A
C1273      C1278   1.402       .  A
C1273      H1289   1.084       .  S
C1274      C1275   1.404       .  A
C1274      H1290   1.084       .  S
C1275      C1285   1.399       .  A
C1275      C1276   1.408       .  A
C1276      C1282   1.413       .  A
C1276      C1277   1.412       .  A
C1277      C1279   1.412       .  A
C1277      C1278   1.413       .  A
C1278      C1286   1.402       .  A
C1279      C1288   1.403       .  A
C1279      C1280   1.403       .  A
C1280      C1281   1.400       .  A
C1280      H1291   1.083       .  S
C1281      C1282   1.404       .  A
C1281      H1292   1.083       .  S
C1282      C1283   1.408       .  A
C1283      C1284   1.408       .  A
C1283      H1293   1.084       .  S
C1284      C1285   1.412       .  A
C1285      H1294   1.084       .  S
C1286      C1287   1.403       .  A
C1286      H1295   1.085       .  S
C1287      C1288   1.403       .  A
C1288      H1296   1.084       .  S
C1297      C1298   1.397       .  A
C1297      C1302   1.403       .  A
C1297      H1313   1.084       .  S
C1298      C1299   1.402       .  A
C1298      H1314   1.084       .  S
C1299      C1309   1.399       .  A
C1299      C1300   1.412       .  A
C1300      C1306   1.413       .  A
C1300      C1301   1.410       .  A
C1301      C1303   1.411       .  A
C1301      C1302   1.410       .  A
C1302      C1310   1.399       .  A
C1303      C1312   1.403       .  A
C1303      C1304   1.404       .  A
C1304      C1305   1.399       .  A
C1304      H1315   1.083       .  S
C1305      C1306   1.403       .  A
C1305      H1316   1.083       .  S
C1306      C1307   1.403       .  A
C1307      C1308   1.402       .  A
C1307      H1317   1.084       .  S
C1308      C1309   1.402       .  A
C1309      H1318   1.085       .  S
C1310      C1311   1.409       .  A
C1310      H1319   1.084       .  S
C1311      C1312   1.407       .  A
C1312      H1320   1.084       .  S
C1321      C1322   1.398       .  A
C1321      C1326   1.403       .  A
C1321      H1337   1.084       .  S
C1322      C1323   1.403       .  A
C1322      H1338   1.084       .  S
C1323      C1333   1.403       .  A
C1323      C1324   1.412       .  A
C1324      C1330   1.412       .  A
C1324      C1325   1.414       .  A
C1325      C1327   1.412       .  A
C1325      C1326   1.411       .  A
C1326      C1334   1.403       .  A
C1327      C1336   1.408       .  A
C1327      C1328   1.405       .  A
C1328      C1329   1.402       .  A
C1328      H1339   1.084       .  S
C1329      C1330   1.404       .  A
C1329      H1340   1.084       .  S
C1330      C1331   1.406       .  A
C1331      C1332   1.405       .  A
C1331      H1341   1.084       .  S
C1332      C1333   1.404       .  A
C1333      H1342   1.084       .  S
C1334      C1335   1.408       .  A
C1334      H1343   1.084       .  S
C1335      C1336   1.411       .  A
C1336      H1344   1.084       .  S
C1345      C1346   1.399       .  A
C1345      C1350   1.404       .  A
C1345      H1361   1.084       .  S
C1346      C1347   1.403       .  A
C1346      H1362   1.084       .  S
C1347      C1357   1.403       .  A
C1347      C1348   1.412       .  A
C1348      C1354   1.413       .  A
C1348      C1349   1.415       .  A
C1349      C1351   1.411       .  A
C1349      C1350   1.411       .  A
C1350      C1358   1.404       .  A
C1351      C1360   1.408       .  A
C1351      C1352   1.405       .  A
C1352      C1353   1.401       .  A
C1352      H1363   1.083       .  S
C1353      C1354   1.404       .  A
C1353      H1364   1.083       .  S
C1354      C1355   1.407       .  A
C1355      C1356   1.405       .  A
C1355      H1365   1.084       .  S
C1356      C1357   1.404       .  A
C1357      H1366   1.084       .  S
C1358      C1359   1.411       .  A
C1358      H1367   1.084       .  S
C1359      C1360   1.411       .  A
C1360      H1368   1.084       .  S
C1369      C1370   1.397       .  A
C1369      C1374   1.403       .  A
C1369      H1385   1.084       .  S
C1370      C1371   1.402       .  A
C1370      H1386   1.084       .  S
C1371      C1381   1.402       .  A
C1371      C1372   1.413       .  A
C1372      C1378   1.412       .  A
C1372      C1373   1.415       .  A
C1373      C1375   1.413       .  A
C1373      C1374   1.409       .  A
C1374      C1382   1.399       .  A
C1375      C1384   1.412       .  A
C1375      C1376   1.405       .  A
C1376      C1377   1.403       .  A
C1376      H1387   1.083       .  S
C1377      C1378   1.405       .  A
C1377      H1388   1.083       .  S
C1378      C1379   1.409       .  A
C1379      C1380   1.407       .  A
C1379      H1389   1.084       .  S
C1380      C1381   1.402       .  A
C1381      H1390   1.085       .  S
C1382      C1383   1.411       .  A
C1382      H1391   1.084       .  S
C1383      C1384   1.410       .  A
C1384      H1392   1.084       .  S
C1393      C1394   1.399       .  A
C1393      C1398   1.404       .  A
C1393      H1409   1.084       .  S
C1394      C1395   1.403       .  A
C1394      H1410   1.084       .  S
C1395      C1405   1.405       .  A
C1395      C1396   1.413       .  A
C1396      C1402   1.412       .  A
C1396      C1397   1.416       .  A
C1397      C1399   1.412       .  A
C1397      C1398   1.410       .  A
C1398      C1406   1.404       .  A
C1399      C1408   1.411       .  A
C1399      C1400   1.405       .  A
C1400      C1401   1.402       .  A
C1400      H1411   1.083       .  S
C1401      C1402   1.405       .  A
C1401      H1412   1.083       .  S
C1402      C1403   1.408       .  A
C1403      C1404   1.408       .  A
C1403      H1413   1.084       .  S
C1404      C1405   1.405       .  A
C1405      H1414   1.084       .  S
C1406      C1407   1.412       .  A
C1406      H1415   1.083       .  S
C1407      C1408   1.411       .  A
C1408      H1416   1.084       .  S
C1417      C1418   1.402       .  A
C1417      C1422   1.405       .  A
C1417      H1433   1.084       .  S
C1418      C1419   1.404       .  A
C1418      H1434   1.084       .  S
C1419      C1429   1.406       .  A
C1419      C1420   1.412       .  A
C1420      C1426   1.412       .  A
C1420      C1421   1.413       .  A
C1421      C1423   1.411       .  A
C1421      C1422   1.412       .  A
C1422      C1430   1.407       .  A
C1423      C1432   1.401       .  A
C1423      C1424   1.403       .  A
C1424      C1425   1.397       .  A
C1424      H1435   1.084       .  S
C1425      C1426   1.402       .  A
C1425      H1436   1.084       .  S
C1426      C1427   1.401       .  A
C1427      C1428   1.402       .  A
C1427      H1437   1.084       .  S
C1428      C1429   1.406       .  A
C1429      H1438   1.084       .  S
C1430      C1431   1.411       .  A
C1430      H1439   1.084       .  S
C1431      C1432   1.406       .  A
C1432      H1440   1.084       .  S
C1441      C1442   1.400       .  A
C1441      C1446   1.403       .  A
C1441      H1457   1.083       .  S
C1442      C1443   1.404       .  A
C1442      H1458   1.083       .  S
C1443      C1453   1.402       .  A
C1443      C1444   1.411       .  A
C1444      C1450   1.413       .  A
C1444      C1445   1.410       .  A
C1445      C1447   1.408       .  A
C1445      C1446   1.413       .  A
C1446      C1454   1.405       .  A
C1447      C1456   1.396       .  A
C1447      C1448   1.404       .  A
C1448      C1449   1.396       .  A
C1448      H1459   1.084       .  S
C1449      C1450   1.402       .  A
C1449      H1460   1.084       .  S
C1450      C1451   1.399       .  A
C1451      C1452   1.402       .  A
C1451      H1461   1.085       .  S
C1452      C1453   1.405       .  A
C1453      H1462   1.084       .  S
C1454      C1455   1.407       .  A
C1454      H1463   1.084       .  S
C1455      C1456   1.411       .  A
C1456      H1464   1.083       .  S
C1465      C1466   1.401       .  A
C1465      C1470   1.404       .  A
C1465      H1481   1.083       .  S
C1466      C1467   1.404       .  A
C1466      H1482   1.083       .  S
C1467      C1477   1.405       .  A
C1467      C1468   1.411       .  A
C1468      C1474   1.413       .  A
C1468      C1469   1.413       .  A
C1469      C1471   1.409       .  A
C1469      C1470   1.412       .  A
C1470      C1478   1.408       .  A
C1471      C1480   1.401       .  A
C1471      C1472   1.404       .  A
C1472      C1473   1.398       .  A
C1472      H1483   1.084       .  S
C1473      C1474   1.402       .  A
C1473      H1484   1.084       .  S
C1474      C1475   1.403       .  A
C1475      C1476   1.402       .  A
C1475      H1485   1.084       .  S
C1476      C1477   1.405       .  A
C1477      H1486   1.084       .  S
C1478      C1479   1.410       .  A
C1478      H1487   1.084       .  S
C1479      C1480   1.410       .  A
C1480      H1488   1.084       .  S
C1489      C1490   1.401       .  A
C1489      C1494   1.404       .  A
C1489      H1505   1.083       .  S
C1490      C1491   1.404       .  A
C1490      H1506   1.083       .  S
C1491      C1501   1.405       .  A
C1491      C1492   1.412       .  A
C1492      C1498   1.413       .  A
C1492      C1493   1.409       .  A
C1493      C1495   1.409       .  A
C1493      C1494   1.413       .  A
C1494      C1502   1.407       .  A
C1495      C1504   1.393       .  A
C1495      C1496   1.402       .  A
C1496      C1497   1.394       .  A
C1496      H1507   1.084       .  S
C1497      C1498   1.401       .  A
C1497      H1508   1.084       .  S
C1498      C1499   1.396       .  A
C1499      C1500   1.400       .  A
C1499      H1509   1.085       .  S
C1500      C1501   1.404       .  A
C1501      H1510   1.084       .  S
C1502      C1503   1.407       .  A
C1502      H1511   1.084       .  S
C1503      C1504   1.409       .  A
C1504      H1512   1.084       .  S
C1513      C1514   1.400       .  A
C1513      C1518   1.404       .  A
C1513      H1529   1.084       .  S
C1514      C1515   1.404       .  A
C1514      H1530   1.083       .  S
C1515      C1525   1.404       .  A
C1515      C1516   1.412       .  A
C1516      C1522   1.412       .  A
C1516      C1517   1.413       .  A
C1517      C1519   1.411       .  A
C1517      C1518   1.412       .  A
C1518      C1526   1.405       .  A
C1519      C1528   1.404       .  A
C1519      C1520   1.404       .  A
C1520      C1521   1.400       .  A
C1520      H1531   1.084       .  S
C1521      C1522   1.403       .  A
C1521      H1532   1.083       .  S
C1522      C1523   1.405       .  A
C1523      C1524   1.405       .  A
C1523      H1533   1.084       .  S
C1524      C1525   1.405       .  A
C1525      H1534   1.084       .  S
C1526      C1527   1.407       .  A
C1526      H1535   1.084       .  S
C1527      C1528   1.408       .  A
C1528      H1536   1.084       .  S
C1537      C1538   1.400       .  A
C1537      C1542   1.404       .  A
C1537      H1553   1.084       .  S
C1538      C1539   1.404       .  A
C1538      H1554   1.083       .  S
C1539      C1549   1.406       .  A
C1539      C1540   1.413       .  A
C1540      C1546   1.408       .  A
C1540      C1541   1.406       .  A
C1541      C1543   1.413       .  A
C1541      C1542   1.411       .  A
C1542      C1550   1.401       .  A
C1543      C1552   1.394       .  A
C1543      C1544   1.400       .  A
C1544      C1545   1.392       .  A
C1544      H1555   1.084       .  S
C1545      C1546   1.402       .  A
C1545      H1556   1.084       .  S
C1546      C1547   1.389       .  A
C1547      C1548   1.408       .  A
C1547      H1557   1.084       .  S
C1548      C1549   1.407       .  A
C1549      H1558   1.084       .  S
C1550      C1551   1.403       .  A
C1550      H1559   1.084       .  S
C1551      C1552   1.399       .  A
C1552      H1560   1.085       .  S
C1561      C1562   1.397       .  A
C1561      C1566   1.404       .  A
C1561      H1577   1.084       .  S
C1562      C1563   1.402       .  A
C1562      H1578   1.084       .  S
C1563      C1573   1.401       .  A
C1563      C1564   1.413       .  A
C1564      C1570   1.412       .  A
C1564      C1565   1.412       .  A
C1565      C1567   1.413       .  A
C1565      C1566   1.409       .  A
C1566      C1574   1.399       .  A
C1567      C1576   1.408       .  A
C1567      C1568   1.404       .  A
C1568      C1569   1.401       .  A
C1568      H1579   1.083       .  S
C1569      C1570   1.404       .  A
C1569      H1580   1.083       .  S
C1570      C1571   1.405       .  A
C1571      C1572   1.404       .  A
C1571      H1581   1.084       .  S
C1572      C1573   1.403       .  A
C1573      H1582   1.085       .  S
C1574      C1575   1.410       .  A
C1574      H1583   1.084       .  S
C1575      C1576   1.408       .  A
C1576      H1584   1.084       .  S
C1585      C1586   1.397       .  A
C1585      C1590   1.402       .  A
C1585      H1601   1.084       .  S
C1586      C1587   1.403       .  A
C1586      H1602   1.084       .  S
C1587      C1597   1.396       .  A
C1587      C1588   1.410       .  A
C1588      C1594   1.413       .  A
C1588      C1589   1.407       .  A
C1589      C1591   1.412       .  A
C1589      C1590   1.413       .  A
C1590      C1598   1.398       .  A
C1591      C1600   1.399       .  A
C1591      C1592   1.402       .  A
C1592      C1593   1.397       .  A
C1592      H1603   1.084       .  S
C1593      C1594   1.402       .  A
C1593      H1604   1.084       .  S
C1594      C1595   1.401       .  A
C1595      C1596   1.403       .  A
C1595      H1605   1.084       .  S
C1596      C1597   1.407       .  A
C1597      H1606   1.085       .  S
C1598      C1599   1.401       .  A
C1598      H1607   1.085       .  S
C1599      C1600   1.400       .  A
C1600      H1608   1.084       .  S
C1609      C1610   1.400       .  A
C1609      C1614   1.404       .  A
C1609      H1625   1.084       .  S
C1610      C1611   1.404       .  A
C1610      H1626   1.083       .  S
C1611      C1621   1.405       .  A
C1611      C1612   1.412       .  A
C1612      C1618   1.412       .  A
C1612      C1613   1.412       .  A
C1613      C1615   1.411       .  A
C1613      C1614   1.411       .  A
C1614      C1622   1.405       .  A
C1615      C1624   1.400       .  A
C1615      C1616   1.403       .  A
C1616      C1617   1.397       .  A
C1616      H1627   1.084       .  S
C1617      C1618   1.402       .  A
C1617      H1628   1.084       .  S
C1618      C1619   1.401       .  A
C1619      C1620   1.402       .  A
C1619      H1629   1.084       .  S
C1620      C1621   1.404       .  A
C1621      H1630   1.084       .  S
C1622      C1623   1.410       .  A
C1622      H1631   1.084       .  S
C1623      C1624   1.408       .  A
C1624      H1632   1.084       .  S
C1633      C1634   1.403       .  A
C1633      C1638   1.405       .  A
C1633      H1649   1.083       .  S
C1634      C1635   1.404       .  A
C1634      H1650   1.083       .  S
C1635      C1645   1.406       .  A
C1635      C1636   1.411       .  A
C1636      C1642   1.413       .  A
C1636      C1637   1.413       .  A
C1637      C1639   1.408       .  A
C1637      C1638   1.413       .  A
C1638      C1646   1.412       .  A
C1639      C1648   1.399       .  A
C1639      C1640   1.404       .  A
C1640      C1641   1.397       .  A
C1640      H1651   1.084       .  S
C1641      C1642   1.401       .  A
C1641      H1652   1.084       .  S
C1642      C1643   1.400       .  A
C1643      C1644   1.401       .  A
C1643      H1653   1.085       .  S
C1644      C1645   1.406       .  A
C1645      H1654   1.084       .  S
C1646      C1647   1.410       .  A
C1646      H1655   1.084       .  S
C1647      C1648   1.413       .  A
C1648      H1656   1.084       .  S
C1657      C1658   1.394       .  A
C1657      C1662   1.401       .  A
C1657      H1673   1.084       .  S
C1658      C1659   1.402       .  A
C1658      H1674   1.084       .  S
C1659      C1669   1.395       .  A
C1659      C1660   1.409       .  A
C1660      C1666   1.412       .  A
C1660      C1661   1.412       .  A
C1661      C1663   1.412       .  A
C1661      C1662   1.412       .  A
C1662      C1670   1.397       .  A
C1663      C1672   1.409       .  A
C1663      C1664   1.406       .  A
C1664      C1665   1.404       .  A
C1664      H1675   1.083       .  S
C1665      C1666   1.406       .  A
C1665      H1676   1.084       .  S
C1666      C1667   1.410       .  A
C1667      C1668   1.411       .  A
C1667      H1677   1.084       .  S
C1668      C1669   1.407       .  A
C1669      H1678   1.084       .  S
C1670      C1671   1.399       .  A
C1670      H1679   1.085       .  S
C1671      C1672   1.407       .  A
C1672      H1680   1.084       .  S
C1681      C1682   1.402       .  A
C1681      C1686   1.405       .  A
C1681      H1697   1.083       .  S
C1682      C1683   1.405       .  A
C1682      H1698   1.083       .  S
C1683      C1693   1.411       .  A
C1683      C1684   1.413       .  A
C1684      C1690   1.408       .  A
C1684      C1685   1.414       .  A
C1685      C1687   1.413       .  A
C1685      C1686   1.411       .  A
C1686      C1694   1.406       .  A
C1687      C1696   1.402       .  A
C1687      C1688   1.402       .  A
C1688      C1689   1.397       .  A
C1688      H1699   1.084       .  S
C1689      C1690   1.404       .  A
C1689      H1700   1.084       .  S
C1690      C1691   1.398       .  A
C1691      C1692   1.412       .  A
C1691      H1701   1.084       .  S
C1692      C1693   1.410       .  A
C1693      H1702   1.084       .  S
C1694      C1695   1.408       .  A
C1694      H1703   1.084       .  S
C1695      C1696   1.403       .  A
C1696      H1704   1.084       .  S
C1705      C1706   1.400       .  A
C1705      C1710   1.404       .  A
C1705      H1721   1.083       .  S
C1706      C1707   1.404       .  A
C1706      H1722   1.084       .  S
C1707      C1717   1.405       .  A
C1707      C1708   1.412       .  A
C1708      C1714   1.411       .  A
C1708      C1709   1.412       .  A
C1709      C1711   1.412       .  A
C1709      C1710   1.412       .  A
C1710      C1718   1.405       .  A
C1711      C1720   1.402       .  A
C1711      C1712   1.403       .  A
C1712      C1713   1.398       .  A
C1712      H1723   1.084       .  S
C1713      C1714   1.403       .  A
C1713      H1724   1.084       .  S
C1714      C1715   1.401       .  A
C1715      C1716   1.407       .  A
C1715      H1725   1.084       .  S
C1716      C1717   1.408       .  A
C1717      H1726   1.084       .  S
C1718      C1719   1.405       .  A
C1718      H1727   1.084       .  S
C1719      C1720   1.405       .  A
C1720      H1728   1.084       .  S
C1729      C1730   1.397       .  A
C1729      C1734   1.404       .  A
C1729      H1745   1.084       .  S
C1730      C1731   1.401       .  A
C1730      H1746   1.084       .  S
C1731      C1741   1.402       .  A
C1731      C1732   1.414       .  A
C1732      C1738   1.411       .  A
C1732      C1733   1.416       .  A
C1733      C1735   1.414       .  A
C1733      C1734   1.407       .  A
C1734      C1742   1.398       .  A
C1735      C1744   1.416       .  A
C1735      C1736   1.406       .  A
C1736      C1737   1.405       .  A
C1736      H1747   1.083       .  S
C1737      C1738   1.406       .  A
C1737      H1748   1.083       .  S
C1738      C1739   1.409       .  A
C1739      C1740   1.409       .  A
C1739      H1749   1.084   1_554  S
C1740      C1741   1.402       .  A
C1741      H1750   1.085       .  S
C1742      C1743   1.413       .  A
C1742      H1751   1.084       .  S
C1743      C1744   1.412       .  A
C1744      H1752   1.084       .  S
C1753      C1754   1.398       .  A
C1753      C1758   1.402       .  A
C1753      H1769   1.084       .  S
C1754      C1755   1.404       .  A
C1754      H1770   1.084       .  S
C1755      C1765   1.401       .  A
C1755      C1756   1.410       .  A
C1756      C1762   1.413       .  A
C1756      C1757   1.414       .  A
C1757      C1759   1.412       .  A
C1757      C1758   1.413       .  A
C1758      C1766   1.402       .  A
C1759      C1768   1.406       .  A
C1759      C1760   1.405       .  A
C1760      C1761   1.402       .  A
C1760      H1771   1.083       .  S
C1761      C1762   1.405       .  A
C1761      H1772   1.083       .  S
C1762      C1763   1.409       .  A
C1763      C1764   1.409       .  A
C1763      H1773   1.084       .  S
C1764      C1765   1.409       .  A
C1765      H1774   1.084       .  S
C1766      C1767   1.402       .  A
C1766      H1775   1.084       .  S
C1767      C1768   1.407       .  A
C1768      H1776   1.084       .  S
C1777      C1778   1.399       .  A
C1777      C1782   1.404       .  A
C1777      H1793   1.084       .  S
C1778      C1779   1.403       .  A
C1778      H1794   1.084       .  S
C1779      C1789   1.406       .  A
C1779      C1780   1.413       .  A
C1780      C1786   1.411       .  A
C1780      C1781   1.417       .  A
C1781      C1783   1.413       .  A
C1781      C1782   1.409       .  A
C1782      C1790   1.402       .  A
C1783      C1792   1.413       .  A
C1783      C1784   1.405       .  A
C1784      C1785   1.403       .  A
C1784      H1795   1.083       .  S
C1785      C1786   1.405       .  A
C1785      H1796   1.083       .  S
C1786      C1787   1.409       .  A
C1787      C1788   1.410       .  A
C1787      H1797   1.084       .  S
C1788      C1789   1.406       .  A
C1789      H1798   1.084       .  S
C1790      C1791   1.412       .  A
C1790      H1799   1.083       .  S
C1791      C1792   1.411       .  A
C1792      H1800   1.084       .  S
C1801      C1802   1.397       .  A
C1801      C1806   1.403       .  A
C1801      H1817   1.084       .  S
C1802      C1803   1.402       .  A
C1802      H1818   1.084       .  S
C1803      C1813   1.401       .  A
C1803      C1804   1.412       .  A
C1804      C1810   1.413       .  A
C1804      C1805   1.414       .  A
C1805      C1807   1.412       .  A
C1805      C1806   1.410       .  A
C1806      C1814   1.400       .  A
C1807      C1816   1.410       .  A
C1807      C1808   1.405       .  A
C1808      C1809   1.403       .  A
C1808      H1819   1.083       .  S
C1809      C1810   1.405       .  A
C1809      H1820   1.083       .  S
C1810      C1811   1.409       .  A
C1811      C1812   1.407       .  A
C1811      H1821   1.084       .  S
C1812      C1813   1.402       .  A
C1813      H1822   1.085       .  S
C1814      C1815   1.409       .  A
C1814      H1823   1.084       .  S
C1815      C1816   1.411       .  A
C1816      H1824   1.084       .  S
C1825      C1826   1.398       .  A
C1825      C1830   1.404       .  A
C1825      H1841   1.084       .  S
C1826      C1827   1.403       .  A
C1826      H1842   1.084       .  S
C1827      C1837   1.404       .  A
C1827      C1828   1.413       .  A
C1828      C1834   1.411       .  A
C1828      C1829   1.415       .  A
C1829      C1831   1.413       .  A
C1829      C1830   1.409       .  A
C1830      C1838   1.401       .  A
C1831      C1840   1.411       .  A
C1831      C1832   1.405       .  A
C1832      C1833   1.403       .  A
C1832      H1843   1.083       .  S
C1833      C1834   1.405       .  A
C1833      H1844   1.083       .  S
C1834      C1835   1.408       .  A
C1835      C1836   1.408       .  A
C1835      H1845   1.084   1_554  S
C1836      C1837   1.404       .  A
C1837      H1846   1.084       .  S
C1838      C1839   1.411       .  A
C1838      H1847   1.083       .  S
C1839      C1840   1.411       .  A
C1840      H1848   1.084       .  S
C1849      C1850   1.400       .  A
C1849      C1854   1.404       .  A
C1849      H1865   1.083       .  S
C1850      C1851   1.404       .  A
C1850      H1866   1.084       .  S
C1851      C1861   1.405       .  A
C1851      C1852   1.412       .  A
C1852      C1858   1.411       .  A
C1852      C1853   1.413       .  A
C1853      C1855   1.412       .  A
C1853      C1854   1.412       .  A
C1854      C1862   1.405       .  A
C1855      C1864   1.402       .  A
C1855      C1856   1.403       .  A
C1856      C1857   1.398       .  A
C1856      H1867   1.084       .  S
C1857      C1858   1.404       .  A
C1857      H1868   1.084       .  S
C1858      C1859   1.402       .  A
C1859      C1860   1.408       .  A
C1859      H1869   1.084       .  S
C1860      C1861   1.408       .  A
C1861      H1870   1.084       .  S
C1862      C1863   1.405       .  A
C1862      H1871   1.084       .  S
C1863      C1864   1.403       .  A
C1864      H1872   1.084   1_554  S
C1873      C1874   1.400       .  A
C1873      C1878   1.404       .  A
C1873      H1889   1.083       .  S
C1874      C1875   1.403       .  A
C1874      H1890   1.084       .  S
C1875      C1885   1.402       .  A
C1875      C1876   1.412       .  A
C1876      C1882   1.413       .  A
C1876      C1877   1.411       .  A
C1877      C1879   1.410       .  A
C1877      C1878   1.412       .  A
C1878      C1886   1.406       .  A
C1879      C1888   1.400       .  A
C1879      C1880   1.404       .  A
C1880      C1881   1.397       .  A
C1880      H1891   1.084       .  S
C1881      C1882   1.402       .  A
C1881      H1892   1.084       .  S
C1882      C1883   1.401       .  A
C1883      C1884   1.402       .  A
C1883      H1893   1.084       .  S
C1884      C1885   1.404       .  A
C1885      H1894   1.084       .  S
C1886      C1887   1.409       .  A
C1886      H1895   1.084       .  S
C1887      C1888   1.409       .  A
C1888      H1896   1.084       .  S
C1897      C1898   1.401       .  A
C1897      C1902   1.404       .  A
C1897      H1913   1.084       .  S
C1898      C1899   1.404       .  A
C1898      H1914   1.083       .  S
C1899      C1909   1.407       .  A
C1899      C1900   1.413       .  A
C1900      C1906   1.409       .  A
C1900      C1901   1.411       .  A
C1901      C1903   1.413       .  A
C1901      C1902   1.411       .  A
C1902      C1910   1.403       .  A
C1903      C1912   1.400       .  A
C1903      C1904   1.402       .  A
C1904      C1905   1.397       .  A
C1904      H1915   1.084       .  S
C1905      C1906   1.403       .  A
C1905      H1916   1.084       .  S
C1906      C1907   1.398       .  A
C1907      C1908   1.410       .  A
C1907      H1917   1.083       .  S
C1908      C1909   1.409       .  A
C1909      H1918   1.084       .  S
C1910      C1911   1.405       .  A
C1910      H1919   1.084       .  S
C1911      C1912   1.402       .  A
C1912      H1920   1.085       .  S
C1921      C1922   1.396       .  A
C1921      C1926   1.402       .  A
C1921      H1937   1.084       .  S
C1922      C1923   1.403       .  A
C1922      H1938   1.084       .  S
C1923      C1933   1.398       .  A
C1923      C1924   1.410       .  A
C1924      C1930   1.413       .  A
C1924      C1925   1.413       .  A
C1925      C1927   1.413       .  A
C1925      C1926   1.412       .  A
C1926      C1934   1.399       .  A
C1927      C1936   1.408       .  A
C1927      C1928   1.405       .  A
C1928      C1929   1.402       .  A
C1928      H1939   1.083       .  S
C1929      C1930   1.405       .  A
C1929      H1940   1.083       .  S
C1930      C1931   1.409       .  A
C1931      C1932   1.408       .  A
C1931      H1941   1.084       .  S
C1932      C1933   1.406       .  A
C1933      H1942   1.085       .  S
C1934      C1935   1.402       .  A
C1934      H1943   1.085       .  S
C1935      C1936   1.405       .  A
C1936      H1944   1.084       .  S
C1945      C1946   1.398       .  A
C1945      C1950   1.402       .  A
C1945      H1961   1.084       .  S
C1946      C1947   1.404       .  A
C1946      H1962   1.084       .  S
C1947      C1957   1.401       .  A
C1947      C1948   1.410       .  A
C1948      C1954   1.412       .  A
C1948      C1949   1.412       .  A
C1949      C1951   1.412       .  A
C1949      C1950   1.413       .  A
C1950      C1958   1.402       .  A
C1951      C1960   1.404       .  A
C1951      C1952   1.403       .  A
C1952      C1953   1.400       .  A
C1952      H1963   1.083       .  S
C1953      C1954   1.404       .  A
C1953      H1964   1.083       .  S
C1954      C1955   1.407       .  A
C1955      C1956   1.408       .  A
C1955      H1965   1.084       .  S
C1956      C1957   1.411       .  A
C1957      H1966   1.084       .  S
C1958      C1959   1.402       .  A
C1958      H1967   1.084       .  S
C1959      C1960   1.404       .  A
C1960      H1968   1.084       .  S
C1969      C1970   1.401       .  A
C1969      C1974   1.404       .  A
C1969      H1985   1.083       .  S
C1970      C1971   1.404       .  A
C1970      H1986   1.083       .  S
C1971      C1981   1.405       .  A
C1971      C1972   1.412       .  A
C1972      C1978   1.413       .  A
C1972      C1973   1.414       .  A
C1973      C1975   1.409       .  A
C1973      C1974   1.412       .  A
C1974      C1982   1.407       .  A
C1975      C1984   1.401       .  A
C1975      C1976   1.404       .  A
C1976      C1977   1.399       .  A
C1976      H1987   1.084       .  S
C1977      C1978   1.403       .  A
C1977      H1988   1.084       .  S
C1978      C1979   1.404       .  A
C1979      C1980   1.405       .  A
C1979      H1989   1.084       .  S
C1980      C1981   1.405       .  A
C1981      H1990   1.084       .  S
C1982      C1983   1.409       .  A
C1982      H1991   1.084       .  S
C1983      C1984   1.410       .  A
C1984      H1992   1.084       .  S
C1993      C1994   1.402       .  A
C1993      C1998   1.404       .  A
C1993      H2009   1.084       .  S
C1994      C1995   1.405       .  A
C1994      H2010   1.083       .  S
C1995      C2005   1.407       .  A
C1995      C1996   1.413       .  A
C1996      C2002   1.412       .  A
C1996      C1997   1.410       .  A
C1997      C1999   1.410       .  A
C1997      C1998   1.412       .  A
C1998      C2006   1.406       .  A
C1999      C2008   1.395       .  A
C1999      C2000   1.402       .  A
C2000      C2001   1.394       .  A
C2000      H2011   1.084       .  S
C2001      C2002   1.401       .  A
C2001      H2012   1.084       .  S
C2002      C2003   1.396       .  A
C2003      C2004   1.400       .  A
C2003      H2013   1.085       .  S
C2004      C2005   1.405       .  A
C2005      H2014   1.084       .  S
C2006      C2007   1.409       .  A
C2006      H2015   1.084       .  S
C2007      C2008   1.407       .  A
C2008      H2016   1.084       .  S
C2017      C2018   1.400       .  A
C2017      C2022   1.403       .  A
C2017      H2033   1.084       .  S
C2018      C2019   1.405       .  A
C2018      H2034   1.084       .  S
C2019      C2029   1.404       .  A
C2019      C2020   1.410       .  A
C2020      C2026   1.413       .  A
C2020      C2021   1.416       .  A
C2021      C2023   1.412       .  A
C2021      C2022   1.413       .  A
C2022      C2030   1.405       .  A
C2023      C2032   1.407       .  A
C2023      C2024   1.404       .  A
C2024      C2025   1.402       .  A
C2024      H2035   1.083       .  S
C2025      C2026   1.404       .  A
C2025      H2036   1.083       .  S
C2026      C2027   1.410       .  A
C2027      C2028   1.408       .  A
C2027      H2037   1.084       .  S
C2028      C2029   1.413       .  A
C2029      H2038   1.084       .  S
C2030      C2031   1.404       .  A
C2030      H2039   1.084       .  S
C2031      C2032   1.406       .  A
C2032      H2040   1.084       .  S
C2041      C2042   1.397       .  A
C2041      C2046   1.402       .  A
C2041      H2057   1.084       .  S
C2042      C2043   1.404       .  A
C2042      H2058   1.084       .  S
C2043      C2053   1.398       .  A
C2043      C2044   1.408       .  A
C2044      C2050   1.413       .  A
C2044      C2045   1.415       .  A
C2045      C2047   1.411       .  A
C2045      C2046   1.413       .  A
C2046      C2054   1.402       .  A
C2047      C2056   1.408       .  A
C2047      C2048   1.405       .  A
C2048      C2049   1.403       .  A
C2048      H2059   1.083       .  S
C2049      C2050   1.405       .  A
C2049      H2060   1.083       .  S
C2050      C2051   1.413       .  A
C2051      C2052   1.411       .  A
C2051      H2061   1.084       .  S
C2052      C2053   1.411       .  A
C2053      H2062   1.084       .  S
C2054      C2055   1.403       .  A
C2054      H2063   1.084       .  S
C2055      C2056   1.408       .  A
C2056      H2064   1.084       .  S
C2065      C2066   1.396       .  A
C2065      C2070   1.402       .  A
C2065      H2081   1.084       .  S
C2066      C2067   1.402       .  A
C2066      H2082   1.084       .  S
C2067      C2077   1.397       .  A
C2067      C2068   1.411       .  A
C2068      C2074   1.413       .  A
C2068      C2069   1.413       .  A
C2069      C2071   1.413       .  A
C2069      C2070   1.412       .  A
C2070      C2078   1.399       .  A
C2071      C2080   1.409       .  A
C2071      C2072   1.405       .  A
C2072      C2073   1.403       .  A
C2072      H2083   1.083       .  S
C2073      C2074   1.405       .  A
C2073      H2084   1.083       .  S
C2074      C2075   1.410       .  A
C2075      C2076   1.408       .  A
C2075      H2085   1.084       .  S
C2076      C2077   1.404       .  A
C2077      H2086   1.085       .  S
C2078      C2079   1.402       .  A
C2078      H2087   1.085       .  S
C2079      C2080   1.407       .  A
C2080      H2088   1.084       .  S
