geometry optimzed in LAMMPS
_audit_creation_date              2020-11-30 
_audit_creation_method            'lammps2cif' 
_symmetry_space_group_name_H-M    'P1' 
_symmetry_Int_Tables_number       1 
_symmetry_cell_setting            triclinic 
loop_ 
_symmetry_equiv_pos_as_xyz 
  x,y,z 
_cell_length_a                    31.565960463197474 
_cell_length_b                    31.55631835534654 
_cell_length_c                    19.40280619572535 
_cell_angle_alpha                 88.97808142447097 
_cell_angle_beta                  89.50745193650756 
_cell_angle_gamma                 89.89670032983798 
loop_ 
_atom_site_label 
_atom_site_type_symbol 
_atom_site_fract_x 
_atom_site_fract_y 
_atom_site_fract_z 
_atom_site_charge 
O1          O  0.05045747  0.73970500  0.42253754    -0.72480
O2          O  0.95778767  0.82660571  0.43610643    -0.73460
O3          O  0.04684702  0.82730182  0.43450908    -0.62080
O4          O  0.95762065  0.73861137  0.42337690    -0.70490
O5          O  0.95895173  0.72990807  0.03709658    -0.70050
O6          O  0.04578208  0.82266008  0.04874495    -0.61300
O7          O  0.95608648  0.81811660  0.04991332    -0.73810
O8          O  0.05140001  0.73450411  0.03687282    -0.72590
Cu9        Cu  0.00311980  0.78280486  0.42518862     1.04560
Cu10       Cu  0.00302876  0.77555458  0.04712212     1.04330
C11         C  0.06814929  0.72691557  0.97818928     0.93710
C12         C  0.94249499  0.83618490  0.49500480     0.92850
C13         C  0.06033904  0.83922263  0.99281836     0.85000
C14         C  0.94177641  0.72281598  0.47889452     0.91270
O15         O  0.80081646  0.97961272  0.06552756    -0.72480
O16         O  0.71229798  0.07160446  0.06313857    -0.73460
O17         O  0.71242902  0.97930270  0.06635707    -0.62080
O18         O  0.80048849  0.06955622  0.06432829    -0.70490
O19         O  0.80173033  0.06985236  0.44993037    -0.70050
O20         O  0.71198330  0.98005831  0.45196739    -0.61300
O21         O  0.71375952  0.07225715  0.44878304    -0.73810
O22         O  0.80077659  0.98082504  0.45105766    -0.72590
Cu23       Cu  0.75605564  0.02497602  0.06884898     1.04560
Cu24       Cu  0.75663268  0.02567119  0.44650804     1.04330
C25         C  0.81500502  0.96616619  0.50800231     0.93710
C26         C  0.70226804  0.08897365  0.50538543     0.92850
C27         C  0.70088244  0.96309632  0.50973618     0.85000
C28         C  0.81492074  0.08411447  0.50708479     0.91270
O29         O  0.95197324  0.32096652  0.44637923    -0.72480
O30         O  0.04049819  0.23008340  0.44006070    -0.73460
O31         O  0.95194827  0.23211951  0.44570322    -0.62080
O32         O  0.04403991  0.31808650  0.43901922    -0.70490
O33         O  0.04440754  0.31953096  0.05348872    -0.70050
O34         O  0.95500325  0.22951622  0.05997255    -0.61300
O35         O  0.04439622  0.23101377  0.05424733    -0.73810
O36         O  0.95273059  0.31788977  0.06072211    -0.72590
Cu37       Cu  0.99695195  0.27585529  0.43880517     1.04560
Cu38       Cu  0.99919871  0.27487723  0.06111442     1.04330
C39         C  0.93588666  0.33093681  0.00465737     0.93710
C40         C  0.05643889  0.21634696  0.49643154     0.92850
C41         C  0.93975744  0.21634491  0.00346537     0.85000
C42         C  0.06085194  0.32976038  0.49513284     0.91270
O43         O  0.20206999  0.07489992  0.04748202    -0.72480
O44         O  0.28986361  0.98369880  0.04101000    -0.73460
O45         O  0.29042942  0.07521064  0.03984807    -0.62080
O46         O  0.20119473  0.98522764  0.04929054    -0.70490
O47         O  0.19930274  0.98489315  0.43499569    -0.70050
O48         O  0.28545626  0.07769590  0.42570818    -0.61300
O49         O  0.28696967  0.98450056  0.42657636    -0.73810
O50         O  0.19745128  0.07393161  0.43338484    -0.72590
Cu51       Cu  0.24639499  0.02973756  0.04833393     1.04560
Cu52       Cu  0.24267041  0.03030735  0.42611370     1.04330
C53         C  0.18570554  0.08854879  0.99136868     0.93710
C54         C  0.29954229  0.96751731  0.98308453     0.92850
C55         C  0.29892731  0.09319414  0.98189273     0.85000
C56         C  0.18640317  0.97064039  0.99346170     0.91270
C57         C  0.24178203  0.65906012  0.00272392    -0.02030
C58         C  0.37335478  0.79736551  0.50644753    -0.02030
C59         C  0.50225822  0.77758130  0.28936380     0.01020
C60         C  0.50129277  0.77611221  0.21874510     0.01020
C61         C  0.62984672  0.79066584  0.00132606    -0.02030
C62         C  0.76725321  0.65727172  0.49223872    -0.02030
C63         C  0.36756952  0.26517791  0.00523436    -0.02030
C64         C  0.23263438  0.39969430  0.50817533    -0.02030
C65         C  0.24630302  0.52945981  0.29015754     0.01020
C66         C  0.24854131  0.52915984  0.21947200     0.01020
C67         C  0.49831363  0.27320607  0.28687158     0.01020
C68         C  0.49628765  0.27385890  0.21619226     0.01020
C69         C  0.62884655  0.26174073  0.50135038    -0.02030
C70         C  0.76246460  0.40014767  0.00139801    -0.02030
C71         C  0.74891675  0.52917657  0.21260887     0.01020
C72         C  0.74811568  0.52826373  0.28310673     0.01020
C73         C  0.78860320  0.49044181  0.12455022    -0.20850
C74         C  0.75468215  0.49011217  0.17116806    -0.08890
C75         C  0.72445392  0.45747299  0.16764481     0.29970
C76         C  0.72875091  0.42574544  0.11797856    -0.20850
C77         C  0.76055651  0.42867801  0.06614713    -0.08900
C78         C  0.79058034  0.46189612  0.07134052     0.29980
F79         F  0.82062833  0.46892040  0.02211591    -0.19420
H80         H  0.81183529  0.51569223  0.12552074     0.18340
H81         H  0.70553688  0.40069243  0.11829800     0.18350
F82         F  0.69010429  0.45716128  0.21016071    -0.19410
C83         C  0.76240699  0.44948412  0.31653200    -0.20850
C84         C  0.74192426  0.48871547  0.32721951    -0.08890
C85         C  0.71974080  0.49342625  0.38959061     0.29970
C86         C  0.72787727  0.46647849  0.44499302    -0.20850
C87         C  0.75178907  0.42883368  0.43720591    -0.08900
C88         C  0.76221670  0.41788426  0.36869766     0.29980
F89         F  0.77743213  0.37875217  0.35411719    -0.19420
H90         H  0.78005163  0.44324232  0.26997812     0.18340
H91         H  0.71425369  0.47532271  0.49398991     0.18350
F92         F  0.69320594  0.52672140  0.39915457    -0.19410
C93         C  0.65482435  0.34000538  0.99463003    -0.20850
C94         C  0.66498141  0.29660979  0.50231510    -0.08890
C95         C  0.70886561  0.28790790  0.51294563     0.29970
C96         C  0.73966068  0.31999103  0.50750531    -0.20850
C97         C  0.72877773  0.36340111  0.00267156    -0.08900
C98         C  0.68494534  0.37223414  0.99745539     0.29980
F99         F  0.66988064  0.41239431  0.99662728    -0.19420
H100        H  0.62309070  0.35078656  0.99007887     0.18340
H101        H  0.77214340  0.30967779  0.50954734     0.18350
F102        F  0.72324189  0.24914251  0.53282263    -0.19410
C103        C  0.54140403  0.30656624  0.37674810    -0.20850
C104        C  0.53934215  0.27647159  0.32491509    -0.08890
C105        C  0.56881970  0.24330765  0.32589051     0.29970
C106        C  0.59789567  0.23925450  0.37993980    -0.20850
C107        C  0.59993380  0.26861989  0.43498136    -0.08900
C108        C  0.56894083  0.30172923  0.43221213     0.29980
F109        F  0.55910647  0.32533583  0.48790402    -0.19420
H110        H  0.51727970  0.33100271  0.37938321     0.18340
H111        H  0.61533910  0.21019388  0.37950666     0.18350
F112        F  0.56582070  0.21145071  0.28008567    -0.19410
C113        C  0.57051047  0.29416628  0.17280131    -0.20850
C114        C  0.53459131  0.26791588  0.17054092    -0.08890
C115        C  0.53180313  0.23873808  0.11687953     0.29970
C116        C  0.56180967  0.23836307  0.06420176    -0.20850
C117        C  0.59781162  0.26494523  0.06437485    -0.08900
C118        C  0.60254888  0.29181982  0.12194431     0.29980
F119        F  0.63761827  0.31578115  0.13048363    -0.19420
H120        H  0.57345595  0.31723698  0.21307066     0.18340
H121        H  0.55724587  0.21636312  0.02267813     0.18350
F122        F  0.49879235  0.21131640  0.11376721    -0.19410
C123        C  0.20885780  0.46651838  0.44458532    -0.20850
C124        C  0.23294289  0.42886090  0.44243793    -0.08890
C125        C  0.25427800  0.42031635  0.37936596     0.29970
C126        C  0.25922847  0.45247245  0.32884898    -0.20850
C127        C  0.23720630  0.49104016  0.33458978    -0.08900
C128        C  0.20922054  0.49580534  0.39063849     0.29980
F129        F  0.18441831  0.53081210  0.39615236    -0.19420
H130        H  0.19056075  0.47457559  0.48968526     0.18340
H131        H  0.28034509  0.44708031  0.28569246     0.18350
F132        F  0.26982660  0.38133046  0.36519458    -0.19410
C133        C  0.21829269  0.42436057  0.13452618    -0.20850
C134        C  0.24183554  0.42770794  0.07221967    -0.08890
C135        C  0.27359819  0.45946212  0.06915923     0.29970
C136        C  0.27773848  0.48857856  0.12157217    -0.20850
C137        C  0.24872483  0.48999641  0.17652382    -0.08900
C138        C  0.21853037  0.45725051  0.18245641     0.29980
F139        F  0.18752308  0.45814984  0.23122909    -0.19420
H140        H  0.19663489  0.39831774  0.14359795     0.18340
H141        H  0.30209936  0.51245961  0.11584437     0.18350
F142        F  0.29875844  0.46551658  0.01305586    -0.19410
C143        C  0.29383279  0.29346373  0.04138700    -0.20850
C144        C  0.33291024  0.30054219  0.00686638    -0.08890
C145        C  0.34113881  0.34290379  0.48555265     0.29970
C146        C  0.30928957  0.37352858  0.48609176    -0.20850
C147        C  0.26790898  0.36473304  0.51011703    -0.08900
C148        C  0.26229717  0.32505293  0.04434752     0.29980
F149        F  0.22664025  0.31664808  0.08162373    -0.19420
H150        H  0.28762922  0.26331813  0.06692382     0.18340
H151        H  0.31747143  0.40393310  0.46408796     0.18350
F152        F  0.37952589  0.35547967  0.46125868    -0.19410
C153        C  0.42724807  0.30375615  0.06737825    -0.20850
C154        C  0.39451778  0.27333628  0.07084804    -0.08890
C155        C  0.38868119  0.25179043  0.13504510     0.29970
C156        C  0.42099461  0.25190873  0.18449658    -0.20850
C157        C  0.45591618  0.27928251  0.17652968    -0.08900
C158        C  0.45622635  0.30788716  0.12028070     0.29980
F159        F  0.48759860  0.33705047  0.11270086    -0.19420
H160        H  0.43288537  0.32262818  0.02144575     0.18340
H161        H  0.41919709  0.22974900  0.22760680     0.18350
F162        F  0.35336963  0.22852747  0.14856616    -0.19410
C163        C  0.42285213  0.29170405  0.32781038    -0.20850
C164        C  0.46036400  0.26775388  0.33396236    -0.08890
C165        C  0.46403308  0.24009268  0.39133845     0.29970
C166        C  0.43465939  0.24098016  0.44462671    -0.20850
C167        C  0.39766777  0.26597768  0.44094999    -0.08900
C168        C  0.39028221  0.28781082  0.37752831     0.29980
F169        F  0.35206014  0.30512742  0.36246585    -0.19420
H170        H  0.41833265  0.31324774  0.28454895     0.18340
H171        H  0.44171393  0.22217234  0.49008862     0.18350
F172        F  0.49721810  0.21299408  0.39798999    -0.19410
C173        C  0.79218759  0.59427287  0.42412662    -0.20850
C174        C  0.76453793  0.62948321  0.42686934    -0.08890
C175        C  0.73582115  0.63518358  0.37134464     0.29970
C176        C  0.73056691  0.60297939  0.32292444    -0.20850
C177        C  0.75678449  0.56691267  0.32426662    -0.08900
C178        C  0.78932228  0.56444464  0.37291040     0.29980
F179        F  0.81657641  0.53107099  0.37410332    -0.19420
H180        H  0.81530584  0.58864377  0.46408772     0.18340
H181        H  0.70573871  0.60595026  0.28498696     0.18350
F182        F  0.71250157  0.67096586  0.36315049    -0.19410
C183        C  0.77300638  0.63673246  0.12269384    -0.20850
C184        C  0.75683519  0.62824295  0.05668148    -0.08890
C185        C  0.72859808  0.59329197  0.05287454     0.29970
C186        C  0.72181776  0.56637300  0.10913502    -0.20850
C187        C  0.74659760  0.56901239  0.16843453    -0.08900
C188        C  0.77270221  0.60511285  0.17469756     0.29980
F189        F  0.80109564  0.60845992  0.22626403    -0.19420
H190        H  0.79103032  0.66530521  0.13102738     0.18340
H191        H  0.70025821  0.54003275  0.10299207     0.18350
F192        F  0.70765479  0.58364367  0.99461586    -0.19410
C193        C  0.71036061  0.76833328  0.99963875    -0.20850
C194        C  0.66685453  0.75720355  0.00125860    -0.08890
C195        C  0.65800075  0.71326324  0.50010580     0.29970
C196        C  0.69018668  0.68318898  0.49595314    -0.20850
C197        C  0.73356293  0.69390540  0.49515734    -0.08900
C198        C  0.74278716  0.73766703  0.00159351     0.29980
F199        F  0.78257098  0.75186915  0.01268237    -0.19420
H200        H  0.72052489  0.80088458  0.99780222     0.18340
H201        H  0.68017555  0.65085631  0.49228422     0.18350
F202        F  0.61790951  0.69823170  0.50369248    -0.19410
C203        C  0.53930326  0.81559011  0.12785842    -0.20850
C204        C  0.53993190  0.78155258  0.17476984    -0.08890
C205        C  0.57319788  0.75191948  0.17082214     0.29970
C206        C  0.60511182  0.75689214  0.12019354    -0.20850
C207        C  0.60153125  0.78843236  0.06756842    -0.08900
C208        C  0.56783571  0.81796850  0.07362688     0.29980
F209        F  0.56029348  0.84797263  0.02445933    -0.19420
H210        H  0.51397327  0.83880651  0.12966520     0.18340
H211        H  0.63088361  0.73441267  0.12065789     0.18350
F212        F  0.57417790  0.71772701  0.21417742    -0.19410
C213        C  0.58131018  0.78960705  0.31844147    -0.20850
C214        C  0.54184493  0.76972456  0.33118369    -0.08890
C215        C  0.53672311  0.74776869  0.39430715     0.29970
C216        C  0.56384649  0.75565081  0.44833680    -0.20850
C217        C  0.60142357  0.77958936  0.43863102    -0.08900
C218        C  0.61272556  0.78959484  0.36959416     0.29980
F219        F  0.65152785  0.80576237  0.35394895    -0.19420
H220        H  0.58758180  0.80723596  0.27133627     0.18340
H221        H  0.55475159  0.74247268  0.49808171     0.18350
F222        F  0.50196634  0.72340387  0.40702539    -0.19410
C223        C  0.47115422  0.81724364  0.38746478    -0.20850
C224        C  0.46419693  0.78943093  0.33288164    -0.08890
C225        C  0.42412436  0.77004413  0.32930619     0.29970
C226        C  0.39274684  0.77936630  0.37832997    -0.20850
C227        C  0.40353924  0.79795790  0.44172442    -0.08900
C228        C  0.44310887  0.81912535  0.44308593     0.29980
F229        F  0.45669049  0.83945328  0.49963086    -0.19420
H230        H  0.50109822  0.83375943  0.39133159     0.18340
H231        H  0.36105648  0.76811898  0.36897366     0.18350
F232        F  0.41568499  0.74016805  0.28200149    -0.19410
C233        C  0.43014959  0.80749023  0.18262654    -0.20850
C234        C  0.46152876  0.77607902  0.17683185    -0.08890
C235        C  0.45890996  0.74767439  0.12200681     0.29970
C236        C  0.42929863  0.75398311  0.07002602    -0.20850
C237        C  0.40007134  0.78783224  0.07199958    -0.08900
C238        C  0.39756351  0.81070083  0.13422087     0.29980
F239        F  0.36448631  0.83668054  0.14850505    -0.19420
H240        H  0.43092543  0.82996150  0.22402696     0.18340
H241        H  0.43093685  0.73356564  0.02591781     0.18350
F242        F  0.48739302  0.71564221  0.11576021    -0.19410
C243        C  0.27464621  0.72725085  0.05313592    -0.20850
C244        C  0.27717635  0.69414774  0.00478924    -0.08890
C245        C  0.31537354  0.69249519  0.46544290     0.29970
C246        C  0.34694992  0.72268246  0.47303533    -0.20850
C247        C  0.33977800  0.76075719  0.50788828    -0.08900
C248        C  0.30394176  0.76105369  0.05228277     0.29980
F249        F  0.29727133  0.79370881  0.09553856    -0.19420
H250        H  0.24835189  0.72817741  0.08930771     0.18340
H251        H  0.37711006  0.71587800  0.44909381     0.18350
F252        F  0.32462720  0.66143511  0.42058298    -0.19410
C253        C  0.28152121  0.62370080  0.10652035    -0.20850
C254        C  0.24253936  0.63407040  0.07402807    -0.08890
C255        C  0.20575538  0.61774783  0.10799883     0.29970
C256        C  0.20850176  0.58267151  0.15210144    -0.20850
C257        C  0.24745404  0.56931792  0.17785837    -0.08900
C258        C  0.28397304  0.59184274  0.15807162     0.29980
F259        F  0.32225844  0.58068967  0.18405097    -0.19420
H260        H  0.31089437  0.63779162  0.08846368     0.18340
H261        H  0.17961054  0.56763537  0.17060288     0.18350
F262        F  0.16772024  0.63752661  0.10656262    -0.19410
C263        C  0.23116698  0.63652976  0.37625778    -0.20850
C264        C  0.25055488  0.62834945  0.44092801    -0.08890
C265        C  0.27761180  0.59221543  0.44394778     0.29970
C266        C  0.28060218  0.56461434  0.38863414    -0.20850
C267        C  0.25390801  0.56872186  0.33139901    -0.08900
C268        C  0.22893642  0.60553172  0.32613883     0.29980
F269        F  0.19790505  0.60971247  0.27911704    -0.19420
H270        H  0.21315510  0.66520791  0.36683460     0.18340
H271        H  0.30109665  0.53715290  0.39374562     0.18350
F272        F  0.30349905  0.58378727  0.49738033    -0.19410
C273        C  0.37418960  0.87835162  0.52798769    -0.20850
C274        C  0.35285033  0.84228188  0.50257861    -0.08890
C275        C  0.31717272  0.85040272  0.96040502     0.29970
C276        C  0.30150502  0.89171650  0.95121357    -0.20850
C277        C  0.32110269  0.92616968  0.98260054    -0.08900
C278        C  0.35772862  0.91920432  0.52068020     0.29980
F279        F  0.37786244  0.95204357  0.55053256    -0.19420
H280        H  0.40348870  0.87563779  0.55561940     0.18340
H281        H  0.27307471  0.89663983  0.92117274     0.18350
F282        F  0.29757632  0.81870217  0.92680256    -0.19410
C283        C  0.30108869  0.16915884  0.94607675    -0.20850
C284        C  0.31990219  0.13493761  0.98140900    -0.08890
C285        C  0.35453276  0.14257964  0.52361873     0.29970
C286        C  0.36939431  0.18385203  0.53164767    -0.20850
C287        C  0.34850083  0.21955110  0.00167472    -0.08900
C288        C  0.31530030  0.21073185  0.95524725     0.29980
F289        F  0.29658458  0.24218568  0.91783645    -0.19420
H290        H  0.27424940  0.16386170  0.91288443     0.18340
H291        H  0.39776094  0.18716575  0.56162795     0.18350
F292        F  0.37445534  0.10996617  0.55650539    -0.19410
C293        C  0.86633412  0.34487376  0.06154271    -0.20850
C294        C  0.89488074  0.35358885  0.00730603    -0.08890
C295        C  0.88172758  0.37989548  0.45286579     0.29970
C296        C  0.84032896  0.39553122  0.45127061    -0.20850
C297        C  0.80940435  0.38324082  0.00145449    -0.08900
C298        C  0.82456006  0.35969851  0.05923727     0.29980
F299        F  0.79859830  0.35048386  0.11362529    -0.19420
H300        H  0.87583845  0.32506655  0.10490521     0.18340
H301        H  0.83418282  0.41891944  0.41168023     0.18350
F302        F  0.90916067  0.39125847  0.40153988    -0.19410
C303        C  0.13606348  0.33098243  0.45807252    -0.20850
C304        C  0.10244624  0.35055599  0.49289575    -0.08890
C305        C  0.11025544  0.38694427  0.03025524     0.29970
C306        C  0.15141419  0.40265054  0.03470324    -0.20850
C307        C  0.18685928  0.38082366  0.50643731    -0.08900
C308        C  0.17751691  0.34614056  0.46357336     0.29980
F309        F  0.20827479  0.32671605  0.42637714    -0.19420
H310        H  0.13036276  0.30305010  0.42782309     0.18340
H311        H  0.15467424  0.43238183  0.06055540     0.18350
F312        F  0.07789435  0.40788524  0.06123423    -0.19410
C313        C  0.11997951  0.18196865  0.04683992    -0.20850
C314        C  0.08930312  0.18352955  0.99495405    -0.08890
C315        C  0.09045465  0.15366535  0.44213841     0.29970
C316        C  0.12210815  0.12288632  0.44128782    -0.20850
C317        C  0.15278536  0.12130046  0.99317731    -0.08900
C318        C  0.15164780  0.15117433  0.04598605     0.29980
F319        F  0.18176815  0.15141901  0.09551238    -0.19420
H320        H  0.11982478  0.20505335  0.08751253     0.18340
H321        H  0.12229113  0.09986614  0.40051880     0.18350
F322        F  0.06039809  0.15345986  0.39250532    -0.19410
C323        C  0.65143385  0.91134469  0.45748307    -0.20850
C324        C  0.67845691  0.92199982  0.01098554    -0.08890
C325        C  0.68728740  0.89133443  0.06226404     0.29970
C326        C  0.67133659  0.85024580  0.05736046    -0.20850
C327        C  0.64659695  0.83763429  0.00078519    -0.08900
C328        C  0.63414389  0.87067754  0.45371920     0.29980
F329        F  0.60210314  0.86647679  0.40849598    -0.19420
H330        H  0.64263194  0.93511921  0.41921850     0.18340
H331        H  0.67916830  0.82746275  0.09772983     0.18350
F332        F  0.71316442  0.90028134  0.11559044    -0.19410
C333        C  0.69097454  0.15976770  0.44939801    -0.20850
C334        C  0.68150376  0.13113598  0.50364969    -0.08890
C335        C  0.65802583  0.14570678  0.05990629     0.29970
C336        C  0.64273688  0.18726136  0.06032163    -0.20850
C337        C  0.64901521  0.21591700  0.50355282    -0.08900
C338        C  0.67630837  0.20167441  0.45023775     0.29980
F339        F  0.68883640  0.22852592  0.39847795    -0.19420
H340        H  0.71137186  0.15021914  0.40724148     0.18340
H341        H  0.62656788  0.19642877  0.10696229     0.18350
F342        F  0.65010088  0.11994699  0.11529800    -0.19410
C343        C  0.87366824  0.12343828  0.44945411    -0.20850
C344        C  0.84692001  0.11783492  0.50692989    -0.08890
C345        C  0.85090724  0.14488014  0.06343421     0.29970
C346        C  0.88139760  0.17679514  0.06218365    -0.20850
C347        C  0.90800474  0.18242336  0.50456544    -0.08900
C348        C  0.90407303  0.15535076  0.44817851     0.29980
F349        F  0.93030143  0.15894637  0.39255911    -0.19420
H350        H  0.87139424  0.10274414  0.40568776     0.18340
H351        H  0.88373148  0.19757296  0.10583750     0.18350
F352        F  0.82465065  0.14131320  0.11901841    -0.19410
C353        C  0.84705346  0.65596439  0.03126606    -0.20850
C354        C  0.81444903  0.67306583  0.48886988    -0.08890
C355        C  0.82798567  0.69987135  0.43350731     0.29970
C356        C  0.87003694  0.71383038  0.42827487    -0.20850
C357        C  0.90041591  0.70076871  0.47671189    -0.08900
C358        C  0.88871181  0.67085289  0.02732222     0.29980
F359        F  0.91775310  0.65531860  0.07242529    -0.19420
H360        H  0.84171929  0.62962139  0.06621906     0.18340
H361        H  0.87835429  0.73645791  0.38777639     0.18350
F362        F  0.80008288  0.71354925  0.38508031    -0.19410
C363        C  0.11923972  0.66603576  0.47222715    -0.20850
C364        C  0.11146559  0.70939984  0.97582396    -0.08890
C365        C  0.14588851  0.73723424  0.98001299     0.29970
C366        C  0.18735967  0.72187893  0.98493441    -0.20850
C367        C  0.19590433  0.67793258  0.99012965    -0.08900
C368        C  0.16075639  0.65043654  0.47751791     0.29980
F369        F  0.16620010  0.60777285  0.47512311    -0.19420
H370        H  0.09313972  0.64411775  0.46706250     0.18340
H371        H  0.21205069  0.74530963  0.98413486     0.18350
F372        F  0.13934458  0.77973387  0.98027353    -0.19410
C373        C  0.90888361  0.90185486  0.44964563    -0.20850
C374        C  0.90960378  0.86910874  0.49941798    -0.08890
C375        C  0.87938364  0.86882542  0.05316892     0.29970
C376        C  0.84895898  0.90098417  0.05665804    -0.20850
C377        C  0.84815423  0.93349175  0.50642376    -0.08900
C378        C  0.87857574  0.93387437  0.45310560     0.29980
F379        F  0.87964930  0.96577208  0.40521426    -0.19420
H380        H  0.93226999  0.90302472  0.40845793     0.18340
H381        H  0.82542143  0.89997099  0.09762235     0.18350
F382        F  0.87839755  0.83687124  0.10093102    -0.19410
C383        C  0.09803306  0.89721271  0.05308777    -0.20850
C384        C  0.09331166  0.87206681  0.99468151    -0.08890
C385        C  0.12015366  0.87884917  0.43733827     0.29970
C386        C  0.15036133  0.91081784  0.43795364    -0.20850
C387        C  0.15463917  0.93658843  0.99558951    -0.08900
C388        C  0.12842043  0.92938956  0.05364836     0.29980
F389        F  0.13120239  0.95414249  0.10993182    -0.19420
H390        H  0.07762039  0.89254151  0.09772876     0.18340
H391        H  0.17070929  0.91522151  0.39315203     0.18350
F392        F  0.11786116  0.85411005  0.38094626    -0.19410
O393        O  0.05046964  0.73970458  0.92253544    -0.72480
O394        O  0.95780792  0.82661321  0.93611560    -0.73460
O395        O  0.04686713  0.82730192  0.93451154    -0.62080
O396        O  0.95763186  0.73861872  0.92338211    -0.70490
O397        O  0.95893804  0.72990296  0.53709206    -0.70050
O398        O  0.04575959  0.82266190  0.54874264    -0.61300
O399        O  0.95606401  0.81811115  0.54990444    -0.73810
O400        O  0.05138530  0.73450685  0.53687526    -0.72590
Cu401      Cu  0.00313566  0.78280848  0.92519230     1.04560
Cu402      Cu  0.00301028  0.77555323  0.54711887     1.04330
C403        C  0.06813661  0.72691842  0.47819321     0.93710
C404        C  0.94251769  0.83619265  0.99501549     0.92850
C405        C  0.06031735  0.83922375  0.49281613     0.85000
C406        C  0.94178771  0.72282338  0.97890002     0.91270
O407        O  0.80079890  0.97960795  0.56552015    -0.72480
O408        O  0.71228380  0.07160276  0.56313983    -0.73460
O409        O  0.71241222  0.97930098  0.56635845    -0.62080
O410        O  0.80047336  0.06955222  0.56432180    -0.70490
O411        O  0.80174949  0.06985471  0.94993688    -0.70050
O412        O  0.71200291  0.98006046  0.95196600    -0.61300
O413        O  0.71377794  0.07225944  0.94878197    -0.73810
O414        O  0.80079711  0.98082844  0.95106502    -0.72590
Cu415      Cu  0.75603991  0.02497294  0.56884617     1.04560
Cu416      Cu  0.75665222  0.02567376  0.94651086     1.04330
C417        C  0.81502513  0.96617132  0.00801115     0.93710
C418        C  0.70228285  0.08897485  0.00538346     0.92850
C419        C  0.70090013  0.96309849  0.00973383     0.85000
C420        C  0.81493870  0.08411676  0.00709202     0.91270
O421        O  0.95197777  0.32096492  0.94636842    -0.72480
O422        O  0.04051395  0.23009337  0.94004797    -0.73460
O423        O  0.95196435  0.23211791  0.94570052    -0.62080
O424        O  0.04404390  0.31809667  0.93899945    -0.70490
O425        O  0.04440080  0.31951683  0.55350870    -0.70050
O426        O  0.95498202  0.22951447  0.55997539    -0.61300
O427        O  0.04437512  0.23099946  0.55426070    -0.73810
O428        O  0.95272279  0.31788848  0.56073289    -0.72590
Cu429      Cu  0.99696181  0.27585936  0.93879361     1.04560
Cu430      Cu  0.99918435  0.27486925  0.56112616     1.04330
C431        C  0.93588170  0.33093872  0.50466776     0.93710
C432        C  0.05645895  0.21636081  0.99641786     0.92850
C433        C  0.93973698  0.21634630  0.50346549     0.85000
C434        C  0.06085589  0.32977432  0.99511087     0.91270
O435        O  0.20205493  0.07488817  0.54749049    -0.72480
O436        O  0.28985391  0.98369203  0.54100997    -0.73460
O437        O  0.29041524  0.07520492  0.53985250    -0.62080
O438        O  0.20118424  0.98521698  0.54929416    -0.70490
O439        O  0.19931523  0.98490101  0.93499208    -0.70050
O440        O  0.28547220  0.07770010  0.92570339    -0.61300
O441        O  0.28698167  0.98450544  0.92657615    -0.73810
O442        O  0.19746746  0.07394035  0.93337620    -0.72590
Cu443      Cu  0.24638283  0.02972877  0.54833803     1.04560
Cu444      Cu  0.24268450  0.03031371  0.92610936     1.04330
C445        C  0.18568842  0.08853717  0.49137884     0.93710
C446        C  0.29953233  0.96751197  0.48308324     0.92850
C447        C  0.29891189  0.09318960  0.48189749     0.85000
C448        C  0.18639122  0.97063159  0.49346500     0.91270
C449        C  0.24177124  0.65906365  0.50271594    -0.02030
C450        C  0.37335706  0.79736853  0.00645196    -0.02030
C451        C  0.50225426  0.77758255  0.78936585     0.01020
C452        C  0.50128666  0.77610888  0.71874770     0.01020
C453        C  0.62984062  0.79065954  0.50133038    -0.02030
C454        C  0.76726214  0.65727781  0.99223920    -0.02030
C455        C  0.36756564  0.26517045  0.50523837    -0.02030
C456        C  0.23263828  0.39970085  0.00816430    -0.02030
C457        C  0.24630994  0.52946528  0.79015036     0.01020
C458        C  0.24854285  0.52916427  0.71946478     0.01020
C459        C  0.49831469  0.27320739  0.78686887     0.01020
C460        C  0.49628736  0.27385906  0.71619019     0.01020
C461        C  0.62884676  0.26173644  0.00135073    -0.02030
C462        C  0.76246199  0.40015305  0.50139924    -0.02030
C463        C  0.74891536  0.52917851  0.71261642     0.01020
C464        C  0.74811889  0.52826578  0.78311438     0.01020
C465        C  0.78859979  0.49044729  0.62455151    -0.20850
C466        C  0.75468101  0.49011484  0.67117393    -0.08890
C467        C  0.72445342  0.45747509  0.66765113     0.29970
C468        C  0.72874928  0.42574929  0.61798175    -0.20850
C469        C  0.76055258  0.42868448  0.56614685    -0.08900
C470        C  0.79057506  0.46190379  0.57133857     0.29980
F471        F  0.82062039  0.46893049  0.52211047    -0.19420
H472        H  0.81183104  0.51569852  0.62552109     0.18340
H473        H  0.70553658  0.40069502  0.61830276     0.18350
F474        F  0.69010567  0.45716095  0.71017111    -0.19410
C475        C  0.76240944  0.44948510  0.81653515    -0.20850
C476        C  0.74192921  0.48871729  0.82722705    -0.08890
C477        C  0.71974709  0.49342727  0.88959933     0.29970
C478        C  0.72788188  0.46647659  0.94499857    -0.20850
C479        C  0.75179145  0.42883064  0.93720725    -0.08900
C480        C  0.76221748  0.41788316  0.86869756     0.29980
F481        F  0.77743033  0.37875071  0.85411281    -0.19420
H482        H  0.78005302  0.44324387  0.76998002     0.18340
H483        H  0.71425835  0.47531933  0.99399622     0.18350
F484        F  0.69321339  0.52672290  0.89916651    -0.19410
C485        C  0.65482278  0.34000968  0.49463369    -0.20850
C486        C  0.66498182  0.29660554  0.00231502    -0.08890
C487        C  0.70886575  0.28790343  0.01294866     0.29970
C488        C  0.73966139  0.31998598  0.00750728    -0.20850
C489        C  0.72877599  0.36340604  0.50267331    -0.08900
C490        C  0.68494353  0.37223863  0.49745996     0.29980
F491        F  0.66987821  0.41239859  0.49663631    -0.19420
H492        H  0.62308975  0.35079032  0.49008630     0.18340
H493        H  0.77214393  0.30967209  0.00955185     0.18350
F494        F  0.72324093  0.24913837  0.03282983    -0.19410
C495        C  0.54140464  0.30656440  0.87674968    -0.20850
C496        C  0.53934304  0.27647124  0.82491407    -0.08890
C497        C  0.56881983  0.24330650  0.82588922     0.29970
C498        C  0.59789499  0.23925153  0.87993974    -0.20850
C499        C  0.59993325  0.26861603  0.93498259    -0.08900
C500        C  0.56894075  0.30172568  0.93221446     0.29980
F501        F  0.55910728  0.32533196  0.98790715    -0.19420
H502        H  0.51728085  0.33100135  0.87938544     0.18340
H503        H  0.61533829  0.21019073  0.87950613     0.18350
F504        F  0.56582108  0.21145086  0.78008198    -0.19410
C505        C  0.57050879  0.29416930  0.67279939    -0.20850
C506        C  0.53459002  0.26791856  0.67053713    -0.08890
C507        C  0.53180216  0.23874159  0.61687469     0.29970
C508        C  0.56180877  0.23836771  0.56419757    -0.20850
C509        C  0.59781057  0.26494999  0.56437265    -0.08900
C510        C  0.60254750  0.29182374  0.62194309     0.29980
F511        F  0.63761714  0.31578434  0.63048472    -0.19420
H512        H  0.57345402  0.31723907  0.71307020     0.18340
H513        H  0.55724556  0.21636796  0.52267347     0.18350
F514        F  0.49879241  0.21131872  0.61376166    -0.19410
C515        C  0.20885961  0.46652142  0.94456914    -0.20850
C516        C  0.23294955  0.42886674  0.94242670    -0.08890
C517        C  0.25429179  0.42032456  0.87936005     0.29970
C518        C  0.25923986  0.45248010  0.82884197    -0.20850
C519        C  0.23721256  0.49104498  0.83457886    -0.08900
C520        C  0.20922296  0.49580819  0.89062227     0.29980
F521        F  0.18441875  0.53081391  0.89613175    -0.19420
H522        H  0.19055821  0.47457643  0.98966567     0.18340
H523        H  0.28035948  0.44709047  0.78568828     0.18350
F524        F  0.26984926  0.38134146  0.86519392    -0.19410
C525        C  0.21828437  0.42436363  0.63453234    -0.20850
C526        C  0.24183237  0.42770235  0.57222986    -0.08890
C527        C  0.27359946  0.45945219  0.56916868     0.29970
C528        C  0.27773877  0.48857405  0.62157415    -0.20850
C529        C  0.24872279  0.48999891  0.67652141    -0.08900
C530        C  0.21852465  0.45725658  0.68245723     0.29980
F531        F  0.18751677  0.45816216  0.73122850    -0.19420
H532        H  0.19662279  0.39832434  0.64360665     0.18340
H533        H  0.30210173  0.51245301  0.61584469     0.18350
F534        F  0.29876479  0.46549775  0.51306931    -0.19410
C535        C  0.29383709  0.29346413  0.54141469    -0.20850
C536        C  0.33290812  0.30053684  0.50687128    -0.08890
C537        C  0.34114416  0.34291179  0.98556683     0.29970
C538        C  0.30929518  0.37353674  0.98610528    -0.20850
C539        C  0.26791069  0.36473778  0.01010838    -0.08900
C540        C  0.26230207  0.32505399  0.54437719     0.29980
F541        F  0.22665087  0.31665494  0.58167157    -0.19420
H542        H  0.28763799  0.26332197  0.56696567     0.18340
H543        H  0.31747989  0.40394406  0.96411539     0.18350
F544        F  0.37953392  0.35548920  0.96128681    -0.19410
C545        C  0.42723693  0.30375469  0.56738782    -0.20850
C546        C  0.39451324  0.27332761  0.57085365    -0.08890
C547        C  0.38868375  0.25177463  0.63504651     0.29970
C548        C  0.42099732  0.25189835  0.68449783    -0.20850
C549        C  0.45591399  0.27927840  0.67653138    -0.08900
C550        C  0.45621765  0.30788607  0.62028683     0.29980
F551        F  0.48758552  0.33705416  0.61270819    -0.19420
H552        H  0.43286797  0.32263195  0.52145918     0.18340
H553        H  0.41920446  0.22973755  0.72760716     0.18350
F554        F  0.35337736  0.22850376  0.64856710    -0.19410
C555        C  0.42285661  0.29171292  0.82780768    -0.20850
C556        C  0.46036481  0.26775696  0.83395725    -0.08890
C557        C  0.46403088  0.24009259  0.89132909     0.29970
C558        C  0.43465793  0.24098177  0.94461759    -0.20850
C559        C  0.39767013  0.26598532  0.94094489    -0.08900
C560        C  0.39028757  0.28782457  0.87752762     0.29980
F561        F  0.35206895  0.30515030  0.86246971    -0.19420
H562        H  0.41833995  0.31325806  0.78454719     0.18340
H563        H  0.44170991  0.22217044  0.99007690     0.18350
F564        F  0.49721271  0.21298963  0.89797632    -0.19410
C565        C  0.79219762  0.59427961  0.92412532    -0.20850
C566        C  0.76454802  0.62949005  0.92686845    -0.08890
C567        C  0.73582960  0.63518908  0.87134576     0.29970
C568        C  0.73057223  0.60298281  0.82293007    -0.20850
C569        C  0.75678886  0.56691532  0.82427304    -0.08900
C570        C  0.78932884  0.56444873  0.87291328     0.29980
F571        F  0.81658233  0.53107457  0.87410658    -0.19420
H572        H  0.81531753  0.58865184  0.96408436     0.18340
H573        H  0.70574257  0.60595297  0.78499505     0.18350
F574        F  0.71251099  0.67097186  0.86314984    -0.19410
C575        C  0.77299964  0.63673180  0.62269354    -0.20850
C576        C  0.75682724  0.62823920  0.55668322    -0.08890
C577        C  0.72858964  0.59328847  0.55288126     0.29970
C578        C  0.72180957  0.56637271  0.60914581    -0.20850
C579        C  0.74659207  0.56901382  0.66844234    -0.08900
C580        C  0.77269735  0.60511408  0.67469969     0.29980
F581        F  0.80109358  0.60846222  0.72626187    -0.19420
H582        H  0.79102419  0.66530473  0.63102260     0.18340
H583        H  0.70024959  0.54003234  0.60300741     0.18350
F584        F  0.70764627  0.58363714  0.49462387    -0.19410
C585        C  0.71035404  0.76832749  0.49964518    -0.20850
C586        C  0.66684816  0.75719771  0.50126562    -0.08890
C587        C  0.65800766  0.71326901  0.00009889     0.29970
C588        C  0.69019424  0.68319464  0.99595117    -0.20850
C589        C  0.73357069  0.69391116  0.99515703    -0.08900
C590        C  0.74278023  0.73766093  0.50159644     0.29980
F591        F  0.78256444  0.75186218  0.51268459    -0.19420
H592        H  0.72051823  0.80087887  0.49781065     0.18340
H593        H  0.68018334  0.65086188  0.99228384     0.18350
F594        F  0.61791628  0.69823755  0.00368133    -0.19410
C595        C  0.53929440  0.81558350  0.62785577    -0.20850
C596        C  0.53992457  0.78154798  0.67477076    -0.08890
C597        C  0.57319154  0.75191595  0.67082694     0.29970
C598        C  0.60510542  0.75688795  0.62019843    -0.20850
C599        C  0.60152354  0.78842594  0.56757010    -0.08900
C600        C  0.56782648  0.81796056  0.57362422     0.29980
F601        F  0.56028268  0.84796197  0.52445306    -0.19420
H602        H  0.51396374  0.83879924  0.62966016     0.18340
H603        H  0.63087851  0.73440993  0.62066588     0.18350
F604        F  0.57417296  0.71772562  0.71418665    -0.19410
C605        C  0.58130708  0.78961279  0.81843994    -0.20850
C606        C  0.54184218  0.76973029  0.83118657    -0.08890
C607        C  0.53672229  0.74777734  0.89431320     0.29970
C608        C  0.56384894  0.75565912  0.94833901    -0.20850
C609        C  0.60142629  0.77959682  0.93862877    -0.08900
C610        C  0.61272457  0.78960228  0.86959007     0.29980
F611        F  0.65152641  0.80576902  0.85393948    -0.19420
H612        H  0.58757717  0.80723941  0.77133192     0.18340
H613        H  0.55475647  0.74248067  0.99808482     0.18350
F614        F  0.50196582  0.72341315  0.90703712    -0.19410
C615        C  0.47114942  0.81725055  0.88745820    -0.20850
C616        C  0.46419319  0.78943303  0.83288163    -0.08890
C617        C  0.42412228  0.77004257  0.82931096     0.29970
C618        C  0.39274548  0.77936383  0.87833593    -0.20850
C619        C  0.40353782  0.79796188  0.94172514    -0.08900
C620        C  0.44310512  0.81913386  0.94308003     0.29980
F621        F  0.45668643  0.83946638  0.99962065    -0.19420
H622        H  0.50109229  0.83376890  0.89132024     0.18340
H623        H  0.36105635  0.76811129  0.86898505     0.18350
F624        F  0.41568445  0.74016340  0.78201068    -0.19410
C625        C  0.43014477  0.80748952  0.68262604    -0.20850
C626        C  0.46152137  0.77607529  0.67683600    -0.08890
C627        C  0.45889989  0.74766807  0.62201470     0.29970
C628        C  0.42928877  0.75397656  0.57003282    -0.20850
C629        C  0.40006577  0.78782962  0.57199962    -0.08900
C630        C  0.39756042  0.81070257  0.63421708     0.29980
F631        F  0.36448660  0.83668760  0.64849599    -0.19420
H632        H  0.43092220  0.82996232  0.72402418     0.18340
H633        H  0.43092394  0.73355597  0.52592795     0.18350
F634        F  0.48738040  0.71563329  0.61577260    -0.19410
C635        C  0.27464239  0.72724970  0.55313160    -0.20850
C636        C  0.27716622  0.69415111  0.50477600    -0.08890
C637        C  0.31538895  0.69248769  0.96547090     0.29970
C638        C  0.34696048  0.72268062  0.97305675    -0.20850
C639        C  0.33978143  0.76075954  0.00789469    -0.08900
C640        C  0.30394094  0.76104994  0.55228225     0.29980
F641        F  0.29727610  0.79370132  0.59554758    -0.19420
H642        H  0.24835116  0.72817443  0.58930952     0.18340
H643        H  0.37712269  0.71587740  0.94912101     0.18350
F644        F  0.32465347  0.66141638  0.92063721    -0.19410
C645        C  0.28151495  0.62370539  0.60650847    -0.20850
C646        C  0.24253162  0.63407348  0.57401974    -0.08890
C647        C  0.20574943  0.61774829  0.60799265     0.29970
C648        C  0.20849899  0.58267207  0.65209493    -0.20850
C649        C  0.24745293  0.56932030  0.67784775    -0.08900
C650        C  0.28397025  0.59184634  0.65805733     0.29980
F651        F  0.32225704  0.58069494  0.68403302    -0.19420
H652        H  0.31088673  0.63779914  0.58845179     0.18340
H653        H  0.17960911  0.56763577  0.67060192     0.18350
F654        F  0.16771345  0.63752560  0.60656166    -0.19410
C655        C  0.23119032  0.63653686  0.87625873    -0.20850
C656        C  0.25056804  0.62834775  0.94093441    -0.08890
C657        C  0.27761457  0.59220625  0.94395839     0.29970
C658        C  0.28060676  0.56460929  0.88863954    -0.20850
C659        C  0.25391967  0.56872544  0.83139635    -0.08900
C660        C  0.22895809  0.60554233  0.82613366     0.29980
F661        F  0.19793413  0.60973523  0.77910180    -0.19420
H662        H  0.21318575  0.66521971  0.86683578     0.18340
H663        H  0.30109461  0.53714309  0.89375398     0.18350
F664        F  0.30348924  0.58376510  0.99740216    -0.19410
C665        C  0.37419118  0.87835354  0.02800318    -0.20850
C666        C  0.35285309  0.84228504  0.00258684    -0.08890
C667        C  0.31716656  0.85039771  0.46040317     0.29970
C668        C  0.30149644  0.89171079  0.45121382    -0.20850
C669        C  0.32109490  0.92616520  0.48259601    -0.08900
C670        C  0.35773266  0.91920686  0.02069307     0.29980
F671        F  0.37786565  0.95204494  0.05055026    -0.19420
H672        H  0.40348842  0.87563886  0.05563984     0.18340
H673        H  0.27306364  0.89663258  0.42117858     0.18350
F674        F  0.29756889  0.81869633  0.42680468    -0.19410
C675        C  0.30106861  0.16915734  0.44609607    -0.20850
C676        C  0.31988714  0.13493325  0.48141377    -0.08890
C677        C  0.35453941  0.14258771  0.02363019     0.29970
C678        C  0.36939735  0.18386101  0.03166063    -0.20850
C679        C  0.34849385  0.21954478  0.50167760    -0.08900
C680        C  0.31528414  0.21072936  0.45526506     0.29980
F681        F  0.29656280  0.24218555  0.41786724    -0.19420
H682        H  0.27422302  0.16386302  0.41291582     0.18340
H683        H  0.39775980  0.18717689  0.06165052     0.18350
F684        F  0.37445746  0.10997693  0.05653149    -0.19410
C685        C  0.86632966  0.34487961  0.56155097    -0.20850
C686        C  0.89487742  0.35359381  0.50731552    -0.08890
C687        C  0.88172918  0.37988991  0.95285680     0.29970
C688        C  0.84033036  0.39552500  0.95126400    -0.20850
C689        C  0.80940185  0.38324708  0.50145917    -0.08900
C690        C  0.82455597  0.35970495  0.55924314     0.29980
F691        F  0.79859273  0.35049024  0.61362927    -0.19420
H692        H  0.87583253  0.32507200  0.60491387     0.18340
H693        H  0.83418375  0.41891359  0.91167455     0.18350
F694        F  0.90916108  0.39125369  0.90152961    -0.19410
C695        C  0.13606378  0.33100449  0.95803411    -0.20850
C696        C  0.10244842  0.35057261  0.99287026    -0.08890
C697        C  0.11025110  0.38693488  0.53026364     0.29970
C698        C  0.15140934  0.40264377  0.53470662    -0.20850
C699        C  0.18686233  0.38083370  0.00642170    -0.08900
C700        C  0.17751778  0.34615959  0.96354043     0.29980
F701        F  0.20827477  0.32674034  0.92633487    -0.19420
H702        H  0.13036154  0.30307750  0.92777265     0.18340
H703        H  0.15466792  0.43237883  0.56054793     0.18350
F704        F  0.07788832  0.40788067  0.56122930    -0.19410
C705        C  0.11994956  0.18194436  0.54686723    -0.20850
C706        C  0.08928085  0.18351328  0.49496969    -0.08890
C707        C  0.09046954  0.15367415  0.94213369     0.29970
C708        C  0.12212212  0.12289426  0.94128387    -0.20850
C709        C  0.15276505  0.12128588  0.49319117    -0.08900
C710        C  0.15161856  0.15115094  0.54601283     0.29980
F711        F  0.18173130  0.15138867  0.59555166    -0.19420
H712        H  0.11978907  0.20502285  0.58754921     0.18340
H713        H  0.12229888  0.09986757  0.90052460     0.18350
F714        F  0.06040578  0.15346147  0.89251246    -0.19410
C715        C  0.65144800  0.91135002  0.95747920    -0.20850
C716        C  0.67844151  0.92199658  0.51098963    -0.08890
C717        C  0.68727457  0.89133181  0.56226801     0.29970
C718        C  0.67132751  0.85024174  0.55736389    -0.20850
C719        C  0.64658894  0.83762853  0.50078865    -0.08900
C720        C  0.63415438  0.87068419  0.95371585     0.29980
F721        F  0.60211280  0.86648577  0.90849360    -0.19420
H722        H  0.64264777  0.93512529  0.91921481     0.18340
H723        H  0.67916072  0.82745928  0.59773333     0.18350
F724        F  0.71315050  0.90028085  0.61559478    -0.19410
C725        C  0.69098113  0.15976762  0.94939475    -0.20850
C726        C  0.68151361  0.13113498  0.00364659    -0.08890
C727        C  0.65801896  0.14571050  0.55991049     0.29970
C728        C  0.64273462  0.18726667  0.56032587    -0.20850
C729        C  0.64901622  0.21591301  0.00355009    -0.08900
C730        C  0.67631035  0.20167280  0.95023434     0.29980
F731        F  0.68883614  0.22852565  0.89847495    -0.19420
H732        H  0.71137973  0.15022125  0.90723846     0.18340
H733        H  0.62656736  0.19643607  0.60696704     0.18350
F734        F  0.65009217  0.11995176  0.61530280    -0.19410
C735        C  0.87369331  0.12343174  0.94946636    -0.20850
C736        C  0.84694066  0.11783440  0.00693815    -0.08890
C737        C  0.85088806  0.14487773  0.56342951     0.29970
C738        C  0.88137706  0.17679404  0.56218021    -0.20850
C739        C  0.90802805  0.18241976  0.00457122    -0.08900
C740        C  0.90409955  0.15534267  0.94818971     0.29980
F741        F  0.93033174  0.15893331  0.89257428    -0.19420
H742        H  0.87142109  0.10273451  0.90570362     0.18340
H743        H  0.88371291  0.19756840  0.60583813     0.18350
F744        F  0.82463480  0.14130601  0.61901720    -0.19410
C745        C  0.84704468  0.65595578  0.53126053    -0.20850
C746        C  0.81445820  0.67307297  0.98887295    -0.08890
C747        C  0.82799580  0.69987870  0.93351099     0.29970
C748        C  0.87004713  0.71383855  0.92828051    -0.20850
C749        C  0.90042570  0.70077767  0.97671888    -0.08900
C750        C  0.88870300  0.67084341  0.52731472     0.29980
F751        F  0.91774500  0.65530842  0.57241596    -0.19420
H752        H  0.84171045  0.62961273  0.56621356     0.18340
H753        H  0.87836496  0.73646558  0.88778156     0.18350
F754        F  0.80009391  0.71355574  0.88508203    -0.19410
C755        C  0.11925182  0.66603147  0.97222355    -0.20850
C756        C  0.11145334  0.70940378  0.47583115    -0.08890
C757        C  0.14587604  0.73723825  0.48002465     0.29970
C758        C  0.18734763  0.72188308  0.48494258    -0.20850
C759        C  0.19589289  0.67793656  0.49012911    -0.08900
C760        C  0.16076864  0.65043229  0.97751600     0.29980
F761        F  0.16621305  0.60776866  0.97512264    -0.19420
H762        H  0.09315177  0.64411337  0.96706058     0.18340
H763        H  0.21203851  0.74531394  0.48414855     0.18350
F764        F  0.13933145  0.77973771  0.48029217    -0.19410
C765        C  0.90890899  0.90186528  0.94966108    -0.20850
C766        C  0.90962863  0.86911838  0.99943210    -0.08890
C767        C  0.87935889  0.86881626  0.55315499     0.29970
C768        C  0.84893537  0.90097606  0.55664517    -0.20850
C769        C  0.84817700  0.93349947  0.00643603    -0.08900
C770        C  0.87860015  0.93388394  0.95312029     0.29980
F771        F  0.87967373  0.96578216  0.90522982    -0.19420
H772        H  0.93229583  0.90303578  0.90847409     0.18340
H773        H  0.82539849  0.89996384  0.59761054     0.18350
F774        F  0.87837247  0.83686218  0.60091725    -0.19410
C775        C  0.09801340  0.89721209  0.55308637    -0.20850
C776        C  0.09329068  0.87206700  0.49467956    -0.08890
C777        C  0.12017309  0.87885127  0.93733898     0.29970
C778        C  0.15037741  0.91082326  0.93795221    -0.20850
C779        C  0.15462492  0.93658189  0.49559180    -0.08900
C780        C  0.12840411  0.92938570  0.55364902     0.29980
F781        F  0.13118731  0.95413828  0.60993270    -0.19420
H782        H  0.07759965  0.89254247  0.59772646     0.18340
H783        H  0.17072422  0.91522860  0.89314963     0.18350
F784        F  0.11788190  0.85411167  0.88094741    -0.19410
loop_ 
_geom_bond_atom_site_label_1 
_geom_bond_atom_site_label_2 
_geom_bond_distance 
_geom_bond_site_symmetry_2 
_ccdc_geom_bond_type 
O1           Cu9   2.020       .  S
O1          C403   1.278       .  A
O2           Cu9   2.000   1_655  S
O2           C12   1.278       .  A
O3           Cu9   1.982       .  S
O3          C405   1.275       .  A
O4           Cu9   2.005   1_655  S
O4           C14   1.277       .  A
O5          Cu10   2.018   1_655  S
O5          C406   1.280   1_554  A
O6          Cu10   2.010       .  S
O6           C13   1.278   1_554  A
O7          Cu10   1.999   1_655  S
O7          C404   1.276   1_554  A
O8          Cu10   2.011       .  S
O8           C11   1.278   1_554  A
Cu9        Cu402   2.373       .  S
Cu10       Cu401   2.373   1_554  S
C11         O393   1.278       .  A
C11         C364   1.475       .  S
C12         O399   1.276       .  A
C12         C374   1.471       .  S
C13         O395   1.275       .  A
C13         C384   1.471       .  S
C14         O397   1.280       .  A
C14         C357   1.482       .  S
O15         Cu23   2.011   1_565  S
O15         C417   1.278       .  A
O16         Cu23   2.019       .  S
O16         C418   1.281       .  A
O17         Cu23   1.997   1_565  S
O17         C419   1.276       .  A
O18         Cu23   1.989       .  S
O18         C420   1.275       .  A
O19         Cu24   1.997       .  S
O19          C28   1.278       .  A
O20         Cu24   2.017   1_565  S
O20          C27   1.280       .  A
O21         Cu24   1.997       .  S
O21          C26   1.276       .  A
O22         Cu24   1.986   1_565  S
O22          C25   1.275       .  A
Cu23       Cu416   2.373   1_554  S
Cu24       Cu415   2.373       .  S
C25         O407   1.278       .  A
C25         C377   1.468       .  S
C26         O408   1.281       .  A
C26         C334   1.482       .  S
C27         O409   1.276       .  A
C27         C716   1.479       .  S
C28         O410   1.275       .  A
C28         C344   1.468       .  S
O29         Cu37   2.015       .  S
O29         C431   1.280       .  A
O30         Cu37   1.992   1_455  S
O30          C40   1.276       .  A
O31         Cu37   1.984       .  S
O31         C433   1.275       .  A
O32         Cu37   1.998   1_455  S
O32          C42   1.276       .  A
O33         Cu38   2.010   1_455  S
O33         C434   1.278   1_554  A
O34         Cu38   2.001       .  S
O34          C41   1.278       .  A
O35         Cu38   1.991   1_455  S
O35         C432   1.276   1_554  A
O36         Cu38   1.997       .  S
O36          C39   1.276       .  A
Cu37       Cu430   2.375       .  S
Cu38       Cu429   2.375   1_554  S
C39         O421   1.280   1_554  A
C39         C294   1.478       .  S
C40         O427   1.276       .  A
C40         C706   1.465       .  S
C41         O423   1.275   1_554  A
C41         C739   1.467       .  S
C42         O425   1.278       .  A
C42         C304   1.469       .  S
O43         Cu51   1.995       .  S
O43          C53   1.277   1_554  A
O44         Cu51   2.003   1_565  S
O44          C54   1.277   1_554  A
O45         Cu51   2.003       .  S
O45          C55   1.277   1_554  A
O46         Cu51   2.004   1_565  S
O46          C56   1.277   1_554  A
O47         Cu52   1.988   1_565  S
O47         C448   1.277       .  A
O48         Cu52   2.017       .  S
O48         C447   1.279       .  A
O49         Cu52   2.009   1_565  S
O49         C446   1.278       .  A
O50         Cu52   1.987       .  S
O50         C445   1.276       .  A
Cu51       Cu444   2.375   1_554  S
Cu52       Cu443   2.375       .  S
C53         O442   1.276       .  A
C53         C317   1.465       .  S
C54         O441   1.278       .  A
C54         C277   1.471       .  S
C55         O440   1.279       .  A
C55         C284   1.475       .  S
C56         O439   1.277       .  A
C56         C387   1.471       .  S
C57         C244   1.576       .  S
C57         C254   1.581       .  S
C57         C367   1.584   1_554  S
C57         C656   1.577   1_554  S
C58         C227   1.570       .  S
C58         C247   1.569       .  S
C58         C274   1.558       .  S
C58         C629   1.557       .  S
C59          C60   1.372       .  D
C59         C214   1.513       .  S
C59         C224   1.513       .  S
C60         C204   1.491       .  S
C60         C234   1.501       .  S
C61         C194   1.573       .  S
C61         C207   1.560       .  S
C61         C327   1.574       .  S
C61         C609   1.563   1_554  S
C62         C174   1.558       .  S
C62         C197   1.571       .  S
C62         C354   1.572       .  S
C62         C576   1.570       .  S
C63         C144   1.562       .  S
C63         C154   1.563       .  S
C63         C287   1.564       .  S
C63         C559   1.561   1_554  S
C64         C124   1.559       .  S
C64         C147   1.566       .  S
C64         C307   1.565       .  S
C64         C526   1.567       .  S
C65          C66   1.373       .  D
C65         C127   1.502       .  S
C65         C267   1.508       .  S
C66         C137   1.503       .  S
C66         C257   1.491       .  S
C67          C68   1.373       .  D
C67         C104   1.501       .  S
C67         C164   1.509       .  S
C68         C114   1.506       .  S
C68         C157   1.502       .  S
C69          C94   1.587       .  S
C69         C107   1.596       .  S
C69         C337   1.579       .  S
C69         C509   1.565       .  S
C70          C77   1.559       .  S
C70          C97   1.574       .  S
C70         C297   1.574       .  S
C70         C479   1.565   1_554  S
C71          C72   1.368       .  D
C71          C74   1.494       .  S
C71         C187   1.511       .  S
C72          C84   1.513       .  S
C72         C177   1.497       .  S
C73          C74   1.396       .  A
C73          C78   1.383       .  A
C73          H80   1.084       .  S
C74          C75   1.408       .  A
C75          C76   1.408       .  A
C75          F82   1.357       .  S
C76          C77   1.417       .  A
C76          H81   1.079       .  S
C77          C78   1.420       .  A
C78          F79   1.356       .  S
C83          C84   1.413       .  A
C83          C88   1.408       .  A
C83          H90   1.078       .  S
C84          C85   1.403       .  A
C85          C86   1.384       .  A
C85          F92   1.357       .  S
C86          C87   1.416       .  A
C86          H91   1.081       .  S
C87         C462   1.565       .  S
C87          C88   1.415       .  A
C88          F89   1.358       .  S
C93          C98   1.396       .  A
C93         C486   1.412   1_556  A
C93         H100   1.061       .  S
C94          C95   1.428       .  A
C94         C485   1.412       .  A
C95          C96   1.407       .  A
C95         F102   1.355       .  S
C96         C489   1.414       .  A
C96         H101   1.076       .  S
C97          C98   1.415   1_554  A
C97         C488   1.414       .  A
C98          F99   1.353       .  S
C103        C104   1.397       .  A
C103        C108   1.395       .  A
C103        H110   1.084       .  S
C104        C105   1.399       .  A
C105        C106   1.404       .  A
C105        F112   1.358       .  S
C106        C107   1.428       .  A
C106        H111   1.069       .  S
C107        C108   1.431       .  A
C108        F109   1.357       .  S
C113        C114   1.407       .  A
C113        C118   1.410       .  A
C113        H120   1.082       .  S
C114        C115   1.406       .  A
C115        C116   1.388       .  A
C115        F122   1.358       .  S
C116        C117   1.414       .  A
C116        H121   1.084       .  S
C117        C461   1.565       .  S
C117        C118   1.424       .  A
C118        F119   1.355       .  S
C123        C124   1.411       .  A
C123        C128   1.384       .  A
C123        H130   1.078       .  S
C124        C125   1.422       .  A
C125        C126   1.406       .  A
C125        F132   1.356       .  S
C126        C127   1.406       .  A
C126        H131   1.081       .  S
C127        C128   1.405       .  A
C128        F129   1.358       .  S
C133        C134   1.416       .  A
C133        C138   1.406       .  A
C133        H140   1.081       .  S
C134        C456   1.567       .  S
C134        C135   1.419       .  A
C135        C136   1.390       .  A
C135        F142   1.353       .  S
C136        C137   1.401       .  A
C136        H141   1.081       .  S
C137        C138   1.410       .  A
C138        F139   1.356       .  S
C143        C144   1.415       .  A
C143        C148   1.409       .  A
C143        H150   1.082       .  S
C144        C537   1.416   1_554  A
C145        C146   1.393       .  A
C145        C536   1.416       .  A
C145        F152   1.354       .  S
C146        C147   1.410       .  A
C146        H151   1.074       .  S
C147        C540   1.418       .  A
C148        C539   1.418       .  A
C148        F149   1.357       .  S
C153        C154   1.412       .  A
C153        C158   1.389       .  A
C153        H160   1.077       .  S
C154        C155   1.419       .  A
C155        C156   1.406       .  A
C155        F162   1.357       .  S
C156        C157   1.407       .  A
C156        H161   1.082       .  S
C157        C158   1.404       .  A
C158        F159   1.358       .  S
C163        C164   1.408       .  A
C163        C168   1.408       .  A
C163        H170   1.081       .  S
C164        C165   1.408       .  A
C165        C166   1.383       .  A
C165        F172   1.357       .  S
C166        C167   1.410       .  A
C166        H171   1.079       .  S
C167        C455   1.561       .  S
C167        C168   1.420       .  A
C168        F169   1.356       .  S
C173        C174   1.413       .  A
C173        C178   1.385       .  A
C173        H180   1.081       .  S
C174        C175   1.423       .  A
C175        C176   1.407       .  A
C175        F182   1.355       .  S
C176        C177   1.406       .  A
C176        H181   1.083       .  S
C177        C178   1.402       .  A
C178        F179   1.359       .  S
C183        C184   1.413       .  A
C183        C188   1.406       .  A
C183        H190   1.082       .  S
C184        C454   1.570   1_554  S
C184        C185   1.423       .  A
C185        C186   1.387       .  A
C185        F192   1.354   1_554  S
C186        C187   1.401       .  A
C186        H191   1.084       .  S
C187        C188   1.415       .  A
C188        F189   1.355       .  S
C193        C194   1.418   1_556  A
C193        C198   1.408   1_556  A
C193        H200   1.077       .  S
C194        C587   1.415       .  A
C195        C196   1.392       .  A
C195        C586   1.415       .  A
C195        F202   1.353       .  S
C196        C197   1.411       .  A
C196        H201   1.072       .  S
C197        C590   1.420       .  A
C198        C589   1.420   1_554  A
C198        F199   1.354       .  S
C203        C204   1.396       .  A
C203        C208   1.380       .  A
C203        H210   1.084       .  S
C204        C205   1.407       .  A
C205        C206   1.408       .  A
C205        F212   1.357       .  S
C206        C207   1.418       .  A
C206        H211   1.078       .  S
C207        C208   1.418       .  A
C208        F209   1.354       .  S
C213        C214   1.414       .  A
C213        C218   1.409       .  A
C213        H220   1.078       .  S
C214        C215   1.405       .  A
C215        C216   1.385       .  A
C215        F222   1.359       .  S
C216        C217   1.417       .  A
C216        H221   1.081       .  S
C217        C453   1.563       .  S
C217        C218   1.414       .  A
C218        F219   1.358       .  S
C223        C224   1.406       .  A
C223        C228   1.392       .  A
C223        H230   1.084       .  S
C224        C225   1.409       .  A
C225        C226   1.402       .  A
C225        F232   1.356       .  S
C226        C227   1.417       .  A
C226        H231   1.080       .  S
C227        C228   1.418       .  A
C228        F229   1.354       .  S
C233        C234   1.405       .  A
C233        C238   1.401       .  A
C233        H240   1.081       .  S
C234        C235   1.406       .  A
C235        C236   1.392       .  A
C235        F242   1.358       .  S
C236        C237   1.411       .  A
C236        H241   1.081       .  S
C237        C450   1.557       .  S
C237        C238   1.419       .  A
C238        F239   1.356       .  S
C243        C244   1.418       .  A
C243        C248   1.413       .  A
C243        H250   1.083       .  S
C244        C637   1.423   1_554  A
C245        C246   1.391       .  A
C245        C636   1.423       .  A
C245        F252   1.352       .  S
C246        C247   1.406       .  A
C246        H251   1.079       .  S
C247        C640   1.416       .  A
C248        C639   1.416       .  A
C248        F249   1.356       .  S
C253        C254   1.422       .  A
C253        C258   1.408       .  A
C253        H260   1.082       .  S
C254        C255   1.423       .  A
C255        C256   1.390       .  A
C255        F262   1.352       .  S
C256        C257   1.393       .  A
C256        H261   1.084       .  S
C257        C258   1.403       .  A
C258        F259   1.357       .  S
C263        C264   1.420       .  A
C263        C268   1.394       .  A
C263        H270   1.082       .  S
C264        C449   1.577       .  S
C264        C265   1.424       .  A
C265        C266   1.397       .  A
C265        F272   1.348       .  S
C266        C267   1.404       .  A
C266        H271   1.084       .  S
C267        C268   1.405       .  A
C268        F269   1.349       .  S
C273        C274   1.422       .  A
C273        C278   1.394       .  A
C273        H280   1.076       .  S
C274        C667   1.418       .  A
C275        C276   1.402       .  A
C275        C666   1.418   1_556  A
C275        F282   1.357       .  S
C276        C277   1.403       .  A
C276        H281   1.084       .  S
C277        C670   1.393   1_556  A
C278        C669   1.393       .  A
C278        F279   1.358       .  S
C283        C284   1.403       .  A
C283        C288   1.402       .  A
C283        H290   1.084       .  S
C284        C677   1.396   1_556  A
C285        C286   1.397       .  A
C285        C676   1.396       .  A
C285        F292   1.358       .  S
C286        C679   1.422       .  A
C286        H291   1.078       .  S
C287        C288   1.419   1_554  A
C287        C678   1.422       .  A
C288        F289   1.357       .  S
C293        C294   1.403       .  A
C293        C298   1.399       .  A
C293        H300   1.083       .  S
C294        C687   1.397   1_554  A
C295        C296   1.396       .  A
C295        C686   1.397       .  A
C295        F302   1.358       .  S
C296        C689   1.422       .  A
C296        H301   1.074       .  S
C297        C298   1.420       .  A
C297        C688   1.422   1_554  A
C298        F299   1.358       .  S
C303        C304   1.402       .  A
C303        C308   1.400       .  A
C303        H310   1.084       .  S
C304        C697   1.392       .  A
C305        C306   1.395       .  A
C305        C696   1.392   1_554  A
C305        F312   1.357       .  S
C306        C699   1.424       .  A
C306        H311   1.077       .  S
C307        C308   1.419       .  A
C307        C698   1.424       .  A
C308        F309   1.357       .  S
C313        C314   1.403   1_554  A
C313        C318   1.393       .  A
C313        H320   1.083       .  S
C314        C432   1.465       .  S
C314        C707   1.405       .  A
C315        C316   1.392       .  A
C315        C706   1.405       .  A
C315        F322   1.358       .  S
C316        C709   1.403       .  A
C316        H321   1.083       .  S
C317        C318   1.405   1_556  A
C317        C708   1.403       .  A
C318        F319   1.358       .  S
C323        C328   1.399       .  A
C323        C716   1.395       .  A
C323        H330   1.084       .  S
C324        C419   1.479       .  S
C324        C325   1.405       .  A
C324        C715   1.395   1_554  A
C325        C326   1.397       .  A
C325        F332   1.358       .  S
C326        C327   1.416       .  A
C326        H331   1.084       .  S
C327        C720   1.431   1_554  A
C328        C719   1.431       .  A
C328        F329   1.353       .  S
C333        C334   1.405       .  A
C333        C338   1.401       .  A
C333        H340   1.083       .  S
C334        C727   1.398       .  A
C335        C336   1.397       .  A
C335        C726   1.398       .  A
C335        F342   1.358       .  S
C336        C729   1.425       .  A
C336        H341   1.079       .  S
C337        C338   1.419       .  A
C337        C728   1.425       .  A
C338        F339   1.359       .  S
C343        C344   1.402       .  A
C343        C348   1.392       .  A
C343        H350   1.083       .  S
C344        C737   1.408       .  A
C345        C346   1.394       .  A
C345        C736   1.408       .  A
C345        F352   1.358       .  S
C346        C739   1.402       .  A
C346        H351   1.083       .  S
C347        C433   1.467       .  S
C347        C348   1.407       .  A
C347        C738   1.402       .  A
C348        F349   1.358       .  S
C353        C358   1.398       .  A
C353        C746   1.422   1_554  A
C353        H360   1.076       .  S
C354        C355   1.419       .  A
C354        C745   1.422       .  A
C355        C356   1.402       .  A
C355        F362   1.358       .  S
C356        C357   1.405       .  A
C356        H361   1.083       .  S
C357        C750   1.398       .  A
C358        C749   1.398   1_554  A
C358        F359   1.358       .  S
C363        C368   1.403       .  A
C363        C756   1.393       .  A
C363        H370   1.083       .  S
C364        C365   1.402       .  A
C364        C755   1.393       .  A
C365        C366   1.399       .  A
C365        F372   1.357       .  S
C366        C367   1.414       .  A
C366        H371   1.075       .  S
C367        C760   1.435       .  A
C368        C759   1.435       .  A
C368        F369   1.358       .  S
C373        C374   1.402       .  A
C373        C378   1.392       .  A
C373        H380   1.083       .  S
C374        C767   1.408       .  A
C375        C376   1.398       .  A
C375        C766   1.408   1_554  A
C375        F382   1.358       .  S
C376        C769   1.403       .  A
C376        H381   1.083       .  S
C377        C378   1.405       .  A
C377        C768   1.403       .  A
C378        F379   1.358       .  S
C383        C384   1.404   1_554  A
C383        C388   1.398       .  A
C383        H390   1.083       .  S
C384        C777   1.407       .  A
C385        C386   1.390       .  A
C385        C776   1.407       .  A
C385        F392   1.358       .  S
C386        C779   1.402       .  A
C386        H391   1.083       .  S
C387        C388   1.408   1_556  A
C387        C778   1.402       .  A
C388        F389   1.357       .  S
O393       Cu401   2.020       .  S
O394       Cu401   2.000   1_655  S
O394        C404   1.278       .  A
O395       Cu401   1.982       .  S
O396       Cu401   2.005   1_655  S
O396        C406   1.277       .  A
O397       Cu402   2.018   1_655  S
O398       Cu402   2.010       .  S
O398        C405   1.278       .  A
O399       Cu402   1.999   1_655  S
O400       Cu402   2.011       .  S
O400        C403   1.278       .  A
C403        C756   1.475       .  S
C404        C766   1.471       .  S
C405        C776   1.471       .  S
C406        C749   1.482       .  S
O407       Cu415   2.011   1_565  S
O408       Cu415   2.019       .  S
O409       Cu415   1.997   1_565  S
O410       Cu415   1.989       .  S
O411       Cu416   1.997       .  S
O411        C420   1.278   1_556  A
O412       Cu416   2.017   1_565  S
O412        C419   1.280   1_556  A
O413       Cu416   1.997       .  S
O413        C418   1.276   1_556  A
O414       Cu416   1.986   1_565  S
O414        C417   1.275   1_556  A
C417        C769   1.468       .  S
C418        C726   1.482       .  S
C420        C736   1.468       .  S
O421       Cu429   2.015       .  S
O422       Cu429   1.992   1_455  S
O422        C432   1.276       .  A
O423       Cu429   1.984       .  S
O424       Cu429   1.998   1_455  S
O424        C434   1.276       .  A
O425       Cu430   2.010   1_455  S
O426       Cu430   2.001       .  S
O426        C433   1.278       .  A
O427       Cu430   1.991   1_455  S
O428       Cu430   1.997       .  S
O428        C431   1.276       .  A
C431        C686   1.478       .  S
C434        C696   1.469       .  S
O435       Cu443   1.995       .  S
O435        C445   1.277       .  A
O436       Cu443   2.003   1_565  S
O436        C446   1.277       .  A
O437       Cu443   2.003       .  S
O437        C447   1.277       .  A
O438       Cu443   2.004   1_565  S
O438        C448   1.277       .  A
O439       Cu444   1.988   1_565  S
O440       Cu444   2.017       .  S
O441       Cu444   2.009   1_565  S
O442       Cu444   1.987       .  S
C445        C709   1.465       .  S
C446        C669   1.471       .  S
C447        C676   1.475       .  S
C448        C779   1.471       .  S
C449        C636   1.576       .  S
C449        C646   1.581       .  S
C449        C759   1.584       .  S
C450        C619   1.570   1_554  S
C450        C639   1.569       .  S
C450        C666   1.558       .  S
C451        C452   1.372       .  D
C451        C606   1.513       .  S
C451        C616   1.513       .  S
C452        C596   1.491       .  S
C452        C626   1.501       .  S
C453        C586   1.573       .  S
C453        C599   1.560       .  S
C453        C719   1.574       .  S
C454        C566   1.558       .  S
C454        C589   1.571       .  S
C454        C746   1.572       .  S
C455        C536   1.562       .  S
C455        C546   1.563       .  S
C455        C679   1.564       .  S
C456        C516   1.559   1_554  S
C456        C539   1.566       .  S
C456        C699   1.565       .  S
C457        C458   1.373       .  D
C457        C519   1.502       .  S
C457        C659   1.508       .  S
C458        C529   1.503       .  S
C458        C649   1.491       .  S
C459        C460   1.373       .  D
C459        C496   1.501       .  S
C459        C556   1.509       .  S
C460        C506   1.506       .  S
C460        C549   1.502       .  S
C461        C486   1.587       .  S
C461        C499   1.596   1_554  S
C461        C729   1.579       .  S
C462        C469   1.559       .  S
C462        C489   1.574       .  S
C462        C689   1.574       .  S
C463        C464   1.368       .  D
C463        C466   1.494       .  S
C463        C579   1.511       .  S
C464        C476   1.513       .  S
C464        C569   1.497       .  S
C465        C466   1.396       .  A
C465        C470   1.383       .  A
C465        H472   1.084       .  S
C466        C467   1.408       .  A
C467        C468   1.408       .  A
C467        F474   1.357       .  S
C468        C469   1.417       .  A
C468        H473   1.079       .  S
C469        C470   1.420       .  A
C470        F471   1.356       .  S
C475        C476   1.413       .  A
C475        C480   1.408       .  A
C475        H482   1.078       .  S
C476        C477   1.403       .  A
C477        C478   1.384       .  A
C477        F484   1.357       .  S
C478        C479   1.416       .  A
C478        H483   1.081       .  S
C479        C480   1.415       .  A
C480        F481   1.358       .  S
C485        C490   1.396       .  A
C485        H492   1.061       .  S
C486        C487   1.428       .  A
C487        C488   1.407       .  A
C487        F494   1.355       .  S
C488        H493   1.076       .  S
C489        C490   1.415       .  A
C490        F491   1.353       .  S
C495        C496   1.397       .  A
C495        C500   1.395       .  A
C495        H502   1.084       .  S
C496        C497   1.399       .  A
C497        C498   1.404       .  A
C497        F504   1.358       .  S
C498        C499   1.428       .  A
C498        H503   1.069       .  S
C499        C500   1.431       .  A
C500        F501   1.357       .  S
C505        C506   1.407       .  A
C505        C510   1.410       .  A
C505        H512   1.082       .  S
C506        C507   1.406       .  A
C507        C508   1.388       .  A
C507        F514   1.358       .  S
C508        C509   1.414       .  A
C508        H513   1.084       .  S
C509        C510   1.424       .  A
C510        F511   1.355       .  S
C515        C516   1.411       .  A
C515        C520   1.384       .  A
C515        H522   1.078       .  S
C516        C517   1.422       .  A
C517        C518   1.406       .  A
C517        F524   1.356       .  S
C518        C519   1.406       .  A
C518        H523   1.081       .  S
C519        C520   1.405       .  A
C520        F521   1.358       .  S
C525        C526   1.416       .  A
C525        C530   1.406       .  A
C525        H532   1.081       .  S
C526        C527   1.419       .  A
C527        C528   1.390       .  A
C527        F534   1.353       .  S
C528        C529   1.401       .  A
C528        H533   1.081       .  S
C529        C530   1.410       .  A
C530        F531   1.356       .  S
C535        C536   1.415       .  A
C535        C540   1.409       .  A
C535        H542   1.082       .  S
C537        C538   1.393       .  A
C537        F544   1.354       .  S
C538        C539   1.410   1_556  A
C538        H543   1.074       .  S
C540        F541   1.357       .  S
C545        C546   1.412       .  A
C545        C550   1.389       .  A
C545        H552   1.077       .  S
C546        C547   1.419       .  A
C547        C548   1.406       .  A
C547        F554   1.357       .  S
C548        C549   1.407       .  A
C548        H553   1.082       .  S
C549        C550   1.404       .  A
C550        F551   1.358       .  S
C555        C556   1.408       .  A
C555        C560   1.408       .  A
C555        H562   1.081       .  S
C556        C557   1.408       .  A
C557        C558   1.383       .  A
C557        F564   1.357       .  S
C558        C559   1.410       .  A
C558        H563   1.079       .  S
C559        C560   1.420       .  A
C560        F561   1.356       .  S
C565        C566   1.413       .  A
C565        C570   1.385       .  A
C565        H572   1.081       .  S
C566        C567   1.423       .  A
C567        C568   1.407       .  A
C567        F574   1.355       .  S
C568        C569   1.406       .  A
C568        H573   1.083       .  S
C569        C570   1.402       .  A
C570        F571   1.359       .  S
C575        C576   1.413       .  A
C575        C580   1.406       .  A
C575        H582   1.082       .  S
C576        C577   1.423       .  A
C577        C578   1.387       .  A
C577        F584   1.354       .  S
C578        C579   1.401       .  A
C578        H583   1.084       .  S
C579        C580   1.415       .  A
C580        F581   1.355       .  S
C585        C586   1.418       .  A
C585        C590   1.408       .  A
C585        H592   1.077       .  S
C587        C588   1.392   1_554  A
C587        F594   1.353       .  S
C588        C589   1.411       .  A
C588        H593   1.072       .  S
C590        F591   1.354       .  S
C595        C596   1.396       .  A
C595        C600   1.380       .  A
C595        H602   1.084       .  S
C596        C597   1.407       .  A
C597        C598   1.408       .  A
C597        F604   1.357       .  S
C598        C599   1.418       .  A
C598        H603   1.078       .  S
C599        C600   1.418       .  A
C600        F601   1.354       .  S
C605        C606   1.414       .  A
C605        C610   1.409       .  A
C605        H612   1.079       .  S
C606        C607   1.405       .  A
C607        C608   1.385       .  A
C607        F614   1.359       .  S
C608        C609   1.417       .  A
C608        H613   1.081       .  S
C609        C610   1.414       .  A
C610        F611   1.358       .  S
C615        C616   1.406       .  A
C615        C620   1.392       .  A
C615        H622   1.084       .  S
C616        C617   1.409       .  A
C617        C618   1.402       .  A
C617        F624   1.356       .  S
C618        C619   1.417       .  A
C618        H623   1.080       .  S
C619        C620   1.418       .  A
C620        F621   1.354       .  S
C625        C626   1.405       .  A
C625        C630   1.401       .  A
C625        H632   1.081       .  S
C626        C627   1.406       .  A
C627        C628   1.392       .  A
C627        F634   1.358       .  S
C628        C629   1.411       .  A
C628        H633   1.081       .  S
C629        C630   1.419       .  A
C630        F631   1.356       .  S
C635        C636   1.418       .  A
C635        C640   1.413       .  A
C635        H642   1.083       .  S
C637        C638   1.391       .  A
C637        F644   1.352       .  S
C638        C639   1.406   1_556  A
C638        H643   1.079       .  S
C640        F641   1.356       .  S
C645        C646   1.422       .  A
C645        C650   1.408       .  A
C645        H652   1.082       .  S
C646        C647   1.423       .  A
C647        C648   1.390       .  A
C647        F654   1.352       .  S
C648        C649   1.393       .  A
C648        H653   1.084       .  S
C649        C650   1.403       .  A
C650        F651   1.357       .  S
C655        C656   1.420       .  A
C655        C660   1.394       .  A
C655        H662   1.082       .  S
C656        C657   1.424       .  A
C657        C658   1.397       .  A
C657        F664   1.348       .  S
C658        C659   1.404       .  A
C658        H663   1.084       .  S
C659        C660   1.405       .  A
C660        F661   1.349       .  S
C665        C666   1.422       .  A
C665        C670   1.394       .  A
C665        H672   1.076       .  S
C667        C668   1.402       .  A
C667        F674   1.357       .  S
C668        C669   1.403       .  A
C668        H673   1.084       .  S
C670        F671   1.358       .  S
C675        C676   1.403       .  A
C675        C680   1.402       .  A
C675        H682   1.084       .  S
C677        C678   1.397       .  A
C677        F684   1.358       .  S
C678        H683   1.078       .  S
C679        C680   1.419       .  A
C680        F681   1.357       .  S
C685        C686   1.403       .  A
C685        C690   1.399       .  A
C685        H692   1.083       .  S
C687        C688   1.396       .  A
C687        F694   1.358       .  S
C688        H693   1.074       .  S
C689        C690   1.420       .  A
C690        F691   1.358       .  S
C695        C696   1.402       .  A
C695        C700   1.400       .  A
C695        H702   1.084       .  S
C697        C698   1.395       .  A
C697        F704   1.357       .  S
C698        H703   1.077       .  S
C699        C700   1.419   1_554  A
C700        F701   1.357       .  S
C705        C706   1.403       .  A
C705        C710   1.393       .  A
C705        H712   1.083       .  S
C707        C708   1.392       .  A
C707        F714   1.358       .  S
C708        H713   1.083       .  S
C709        C710   1.405       .  A
C710        F711   1.358       .  S
C715        C720   1.399       .  A
C715        H722   1.084       .  S
C716        C717   1.405       .  A
C717        C718   1.397       .  A
C717        F724   1.358       .  S
C718        C719   1.416       .  A
C718        H723   1.084       .  S
C720        F721   1.353       .  S
C725        C726   1.405   1_556  A
C725        C730   1.401       .  A
C725        H732   1.083       .  S
C727        C728   1.397       .  A
C727        F734   1.358       .  S
C728        H733   1.079       .  S
C729        C730   1.419   1_554  A
C730        F731   1.359       .  S
C735        C736   1.402   1_556  A
C735        C740   1.392       .  A
C735        H742   1.083       .  S
C737        C738   1.394       .  A
C737        F744   1.358       .  S
C738        H743   1.083       .  S
C739        C740   1.407   1_554  A
C740        F741   1.358       .  S
C745        C750   1.398       .  A
C745        H752   1.076       .  S
C746        C747   1.419       .  A
C747        C748   1.402       .  A
C747        F754   1.358       .  S
C748        C749   1.405       .  A
C748        H753   1.083       .  S
C750        F751   1.358       .  S
C755        C760   1.403       .  A
C755        H762   1.083       .  S
C756        C757   1.402       .  A
C757        C758   1.399       .  A
C757        F764   1.357       .  S
C758        C759   1.414       .  A
C758        H763   1.075       .  S
C760        F761   1.358       .  S
C765        C766   1.402       .  A
C765        C770   1.392       .  A
C765        H772   1.083       .  S
C767        C768   1.398       .  A
C767        F774   1.358       .  S
C768        H773   1.083       .  S
C769        C770   1.405   1_554  A
C770        F771   1.358       .  S
C775        C776   1.404       .  A
C775        C780   1.398       .  A
C775        H782   1.083       .  S
C777        C778   1.390       .  A
C777        F784   1.358       .  S
C778        H783   1.083       .  S
C779        C780   1.408       .  A
C780        F781   1.357       .  S
