geometry optimzed in LAMMPS
_audit_creation_date              2020-11-30 
_audit_creation_method            'lammps2cif' 
_symmetry_space_group_name_H-M    'P1' 
_symmetry_Int_Tables_number       1 
_symmetry_cell_setting            triclinic 
loop_ 
_symmetry_equiv_pos_as_xyz 
  x,y,z 
_cell_length_a                    80.38861469 
_cell_length_b                    79.7528067276437 
_cell_length_c                    80.00408225283289 
_cell_angle_alpha                 90.27728566172658 
_cell_angle_beta                  90.037838539513 
_cell_angle_gamma                 90.17969872342613 
loop_ 
_atom_site_label 
_atom_site_type_symbol 
_atom_site_fract_x 
_atom_site_fract_y 
_atom_site_fract_z 
_atom_site_charge 
C1          C  0.09510958  0.75124573  0.35633257     0.86300
C2          C  0.09928128  0.73898981  0.34216096    -0.53900
C3          C  0.11406061  0.73064707  0.34391465     0.09300
C4          C  0.12320112  0.73507139  0.36046542     0.20200
C5          C  0.09582308  0.74058171  0.37235671    -0.54600
C6          C  0.11026414  0.73173201  0.37444074     0.09400
C7          C  0.11052360  0.76252977  0.35833862    -0.54200
C8          C  0.12521475  0.75433576  0.36032722     0.09900
H9          H  0.09108668  0.73711316  0.33151889     0.14400
H10         H  0.13517306  0.72846107  0.36219103     0.00200
H11         H  0.08596460  0.74025648  0.38159556     0.14800
H12         H  0.10987673  0.77610443  0.35887233     0.14500
C13         C  0.74959529  0.15563670  0.63409643     0.86300
C14         C  0.75813584  0.13865745  0.63616245    -0.53900
C15         C  0.74795249  0.12497661  0.63777506     0.09300
C16         C  0.72925351  0.13012327  0.63810193     0.20200
C17         C  0.73673557  0.15311961  0.61981870    -0.54600
C18         C  0.72636338  0.13955262  0.62152514     0.09400
C19         C  0.73830036  0.15727104  0.64941932    -0.54200
C20         C  0.72787100  0.14402783  0.65189619     0.09900
H21         H  0.77159141  0.13774776  0.63673570     0.14400
H22         H  0.72038801  0.11966971  0.63941262     0.00200
H23         H  0.73476875  0.16194327  0.60981056     0.14800
H24         H  0.73829663  0.16820665  0.65756776     0.14500
C25         C  0.36184558  0.14490521  0.73294483     0.86300
C26         C  0.36207037  0.16063584  0.74425203    -0.53900
C27         C  0.34848043  0.16248018  0.75430794     0.09300
C28         C  0.33566062  0.14810639  0.75237002     0.20200
C29         C  0.35979151  0.13081598  0.74596279    -0.54600
C30         C  0.34584923  0.13209556  0.75579203     0.09400
C31         C  0.34518612  0.14526640  0.72368558    -0.54200
C32         C  0.33139153  0.14706240  0.73354847     0.09900
H33         H  0.37268269  0.16904078  0.74517529     0.14400
H34         H  0.32464339  0.14975650  0.76049455     0.00200
H35         H  0.36874019  0.12085381  0.74776729     0.14800
H36         H  0.34440589  0.14366841  0.71021487     0.14500
C37         C  0.12783164  0.61510249  0.74400634     0.86300
C38         C  0.14238438  0.61944726  0.75545721    -0.53900
C39         C  0.14118681  0.63412475  0.76443323     0.09300
C40         C  0.12559218  0.64434395  0.75872688     0.20200
C41         C  0.11193069  0.61748529  0.75475270    -0.54600
C42         C  0.11099700  0.63263752  0.76277994     0.09400
C43         C  0.12705188  0.62977543  0.73200011    -0.54200
C44         C  0.12597952  0.64511290  0.73929139     0.09900
H45         H  0.15325101  0.61151856  0.75550359     0.14400
H46         H  0.12363627  0.65684683  0.76386937     0.00200
H47         H  0.10186596  0.60852418  0.75567227     0.14800
H48         H  0.12723072  0.62814893  0.71851386     0.14500
C49         C  0.60192626  0.75112103  0.14098956     0.86300
C50         C  0.60455365  0.76308921  0.15600164    -0.53900
C51         C  0.61933862  0.77175989  0.15618727     0.09300
C52         C  0.63041970  0.76722928  0.14095434     0.20200
C53         C  0.60451657  0.76300698  0.12593609    -0.54600
C54         C  0.61946280  0.77145650  0.12562191     0.09400
C55         C  0.61691949  0.73971762  0.14095741    -0.54200
C56         C  0.63176948  0.74768825  0.14097318     0.09900
H57         H  0.59515785  0.76491723  0.16553310     0.14400
H58         H  0.64233219  0.77405403  0.14095500     0.00200
H59         H  0.59505267  0.76510791  0.11656761     0.14800
H60         H  0.61588635  0.72611740  0.14088315     0.14500
C61         C  0.72061934  0.39130485  0.13481229     0.86300
C62         C  0.73318697  0.39037702  0.14944738    -0.53900
C63         C  0.74410046  0.37722174  0.14873234     0.09300
C64         C  0.74100957  0.36579041  0.13344109     0.20200
C65         C  0.73103312  0.39075780  0.11898844    -0.54600
C66         C  0.74170963  0.37767835  0.11806807     0.09400
C67         C  0.71212556  0.37393582  0.13567084    -0.54200
C68         C  0.72258902  0.36030606  0.13513782     0.09900
H69         H  0.73315740  0.39908539  0.15986824     0.14400
H70         H  0.74988536  0.35541472  0.13311765     0.00200
H71         H  0.73022381  0.40021406  0.10928538     0.14800
H72         H  0.69879279  0.37256650  0.13701641     0.14500
C73         C  0.10110416  0.75897632  0.63736718     0.86300
C74         C  0.10020852  0.74689568  0.62235454    -0.53900
C75         C  0.11299014  0.73583079  0.62116139     0.09300
C76         C  0.12593502  0.73779930  0.63527755     0.20200
C77         C  0.10344132  0.74801737  0.65282149    -0.54600
C78         C  0.11594249  0.73637906  0.65185502     0.09400
C79         C  0.11817909  0.76734910  0.63484303    -0.54200
C80         C  0.13128068  0.75644806  0.63443811     0.09900
H81         H  0.09080168  0.74767593  0.61268269     0.14400
H82         H  0.13625657  0.72882677  0.63369129     0.00200
H83         H  0.09584213  0.74976660  0.66388685     0.14800
H84         H  0.11997817  0.78078330  0.63372996     0.14500
C85         C  0.74461734  0.11914984  0.36147959     0.86300
C86         C  0.73301679  0.12149596  0.37672049    -0.53900
C87         C  0.72323199  0.13555293  0.37626395     0.09300
C88         C  0.72664388  0.14662164  0.36076346     0.20200
C89         C  0.73324638  0.12056919  0.34614805    -0.54600
C90         C  0.72390690  0.13486614  0.34548640     0.09400
C91         C  0.75470678  0.13548395  0.36194092    -0.54200
C92         C  0.74565120  0.14987903  0.36143650     0.09900
H93         H  0.73303279  0.11334651  0.38751079     0.14400
H94         H  0.71905344  0.15819601  0.36035599     0.00200
H95         H  0.73272673  0.11098022  0.33647625     0.14800
H96         H  0.76813828  0.13572278  0.36331499     0.14500
C97         C  0.60292462  0.14098768  0.73780374     0.86300
C98         C  0.60423615  0.12443125  0.74764607    -0.53900
C99         C  0.61867396  0.12260142  0.75654724     0.09300
C100        C  0.63110024  0.13726907  0.75405791     0.20200
C101        C  0.60648420  0.15475107  0.75068529    -0.54600
C102        C  0.62121009  0.15317848  0.75913847     0.09400
C103        C  0.61852063  0.14035638  0.72665038    -0.54200
C104        C  0.63331925  0.13855016  0.73484196     0.09900
H105        H  0.59465316  0.11483241  0.74762799     0.14400
H106        H  0.64296542  0.13559637  0.76090031     0.00200
H107        H  0.59799521  0.16511111  0.75283555     0.14800
H108        H  0.61793773  0.14084943  0.71313092     0.14500
C109        C  0.10175768  0.36366756  0.75906587     0.86300
C110        C  0.10474705  0.37822375  0.74694556    -0.53900
C111        C  0.11808062  0.37647225  0.73642731     0.09300
C112        C  0.12810522  0.36042044  0.74010579     0.20200
C113        C  0.10189573  0.34756307  0.74807610    -0.54600
C114        C  0.11550005  0.34602082  0.73776991     0.09400
C115        C  0.11799115  0.36198173  0.76880607    -0.54200
C116        C  0.13183051  0.36084268  0.75921620     0.09900
H117        H  0.09672293  0.38914352  0.74678343     0.14400
H118        H  0.13896077  0.35874897  0.73199083     0.00200
H119        H  0.09260169  0.33774948  0.74876704     0.14800
H120        H  0.11862355  0.36195754  0.78237838     0.14500
C121        C  0.34918120  0.77644627  0.11746423     0.86300
C122        C  0.36293707  0.76361942  0.12089411    -0.53900
C123        C  0.36067862  0.75414822  0.13492464     0.09300
C124        C  0.34431392  0.75825749  0.14434337     0.20200
C125        C  0.33275642  0.76616716  0.11738427    -0.54600
C126        C  0.33032820  0.75629833  0.13118626     0.09400
C127        C  0.34755198  0.78658918  0.13375736    -0.54200
C128        C  0.34501176  0.77737623  0.14787177     0.09900
H129        H  0.37380642  0.76233169  0.11293985     0.14400
H130        H  0.34228061  0.75047052  0.15560945     0.00200
H131        H  0.32341486  0.76700951  0.10766200     0.14800
H132        H  0.34780152  0.80019197  0.13406802     0.14500
C133        C  0.74278342  0.64956109  0.11360391     0.86300
C134        C  0.73329550  0.63264931  0.11450166    -0.53900
C135        C  0.72440779  0.63029176  0.12890814     0.09300
C136        C  0.72645222  0.64477753  0.14157396     0.20200
C137        C  0.72976897  0.66294257  0.11729609    -0.54600
C138        C  0.72130681  0.66077182  0.13194611     0.09400
C139        C  0.75373870  0.64904039  0.12932222    -0.54200
C140        C  0.74550491  0.64626963  0.14395948     0.09900
H141        H  0.73376852  0.62310184  0.10482458     0.14400
H142        H  0.71938681  0.64270209  0.15327482     0.00200
H143        H  0.72762976  0.67353758  0.10909354     0.14800
H144        H  0.76720204  0.64980295  0.12884428     0.14500
C145        C  0.37569414  0.75265599  0.86186127     0.86300
C146        C  0.37349220  0.76381282  0.84613729    -0.53900
C147        C  0.35930049  0.77346137  0.84613212     0.09300
C148        C  0.34816754  0.77037990  0.86156590     0.20200
C149        C  0.37383039  0.76479118  0.87668493    -0.54600
C150        C  0.35951675  0.77406800  0.87681243     0.09400
C151        C  0.35964604  0.74227056  0.86146882    -0.54200
C152        C  0.34529570  0.75120011  0.86138651     0.09900
H153        H  0.38179837  0.76367688  0.83549858     0.14400
H154        H  0.33647738  0.77770960  0.86161787     0.00200
H155        H  0.38328581  0.76600506  0.88632242     0.14800
H156        H  0.35959221  0.72868220  0.86047017     0.14500
C157        C  0.72511582  0.61716414  0.86657331     0.86300
C158        C  0.73593986  0.61895892  0.85071844    -0.53900
C159        C  0.74641076  0.63259552  0.85039890     0.09300
C160        C  0.74405269  0.64391461  0.86606744     0.20200
C161        C  0.73828370  0.61803113  0.88071739    -0.54600
C162        C  0.74807102  0.63216126  0.88070905     0.09400
C163        C  0.71551061  0.63339803  0.86768178    -0.54200
C164        C  0.72497604  0.64741652  0.86735089     0.09900
H165        H  0.73583125  0.60974566  0.84084087     0.14400
H166        H  0.75207521  0.65510172  0.86631601     0.00200
H167        H  0.74009748  0.60804357  0.88968999     0.14800
H168        H  0.70200300  0.63382238  0.86835420     0.14500
C169        C  0.87005458  0.36363229  0.75998656     0.86300
C170        C  0.86936817  0.34928857  0.74713179    -0.53900
C171        C  0.85478938  0.34794739  0.73824787     0.09300
C172        C  0.84245524  0.36208164  0.74261817     0.20200
C173        C  0.86638199  0.37952301  0.74993034    -0.54600
C174        C  0.85243899  0.37860461  0.74036844     0.09400
C175        C  0.85400500  0.36183065  0.77056544    -0.54200
C176        C  0.83943498  0.36082453  0.76157165     0.09900
H177        H  0.87984782  0.34097012  0.74515321     0.14400
H178        H  0.83083012  0.36109969  0.73561716     0.00200
H179        H  0.87391747  0.39081551  0.75037878     0.14800
H180        H  0.85407441  0.36207714  0.78412852     0.14500
C181        C  0.59592626  0.86629602  0.73265288     0.86300
C182        C  0.60073257  0.85129165  0.74352425    -0.53900
C183        C  0.61569932  0.85280056  0.75168368     0.09300
C184        C  0.62507187  0.86920758  0.74716410     0.20200
C185        C  0.59773804  0.88173586  0.74422595    -0.54600
C186        C  0.61289714  0.88348229  0.75186148     0.09400
C187        C  0.61053625  0.86849306  0.72048198    -0.54200
C188        C  0.62574935  0.86921637  0.72783099     0.09900
H189        H  0.59264291  0.84046112  0.74494888     0.14400
H190        H  0.63739918  0.87088337  0.75306596     0.00200
H191        H  0.58808147  0.89098190  0.74587264     0.14800
H192        H  0.60914139  0.86886423  0.70698940     0.14500
C193        C  0.75127137  0.84806704  0.36857013     0.86300
C194        C  0.74070891  0.84587920  0.38443671    -0.53900
C195        C  0.72826721  0.85739880  0.38649057     0.09300
C196        C  0.72783905  0.87072712  0.37241580     0.20200
C197        C  0.73784120  0.84808457  0.35468131    -0.54600
C198        C  0.72610772  0.86033971  0.35619753     0.09400
C199        C  0.75761830  0.86620064  0.36943240    -0.54200
C200        C  0.74566007  0.87816301  0.37175238     0.09900
H201        H  0.74258856  0.83562974  0.39310184     0.14400
H202        H  0.71785465  0.88015912  0.37398100     0.00200
H203        H  0.73672687  0.83886268  0.34489183     0.14800
H204        H  0.77074014  0.86932687  0.36839713     0.14500
C205        C  0.87000781  0.75416128  0.63198102     0.86300
C206        C  0.86806468  0.74331788  0.64781127    -0.53900
C207        C  0.85338875  0.73463144  0.64906987     0.09300
C208        C  0.84175633  0.73785620  0.63404955     0.20200
C209        C  0.86706539  0.74217571  0.61750073    -0.54600
C210        C  0.85246159  0.73363374  0.61827788     0.09400
C211        C  0.85443745  0.76536684  0.63253344    -0.54200
C212        C  0.83952630  0.75715418  0.63397730     0.09900
H213        H  0.87710868  0.74300898  0.65775383     0.14400
H214        H  0.82991611  0.73101207  0.63506793     0.00200
H215        H  0.87594317  0.74042829  0.60740680     0.14800
H216        H  0.85524976  0.77893925  0.63211454     0.14500
C217        C  0.63264692  0.76549885  0.84067791     0.86300
C218        C  0.64636117  0.75256689  0.84354651    -0.53900
C219        C  0.64454659  0.74307724  0.85766810     0.09300
C220        C  0.62849236  0.74727930  0.86760103     0.20200
C221        C  0.61629779  0.75518507  0.84083358    -0.54600
C222        C  0.61415323  0.74536283  0.85475288     0.09400
C223        C  0.63140694  0.77551614  0.85704241    -0.54200
C224        C  0.62942564  0.76630472  0.87110561     0.09900
H225        H  0.65672185  0.75104885  0.83497441     0.14400
H226        H  0.62677688  0.73979320  0.87910630     0.00200
H227        H  0.60710347  0.75566427  0.83091269     0.14800
H228        H  0.63114290  0.78909059  0.85755926     0.14500
C229        C  0.74759343  0.36589127  0.87894293     0.86300
C230        C  0.73623742  0.38131782  0.87645822    -0.53900
C231        C  0.72757086  0.38180123  0.86161480     0.09300
C232        C  0.73120798  0.36614928  0.85063629     0.20200
C233        C  0.73623099  0.35082900  0.87658521    -0.54600
C234        C  0.72752643  0.35074689  0.86207252     0.09400
C235        C  0.75862679  0.36646829  0.86322613    -0.54200
C236        C  0.75029531  0.36644226  0.84832773     0.09900
H237        H  0.73548654  0.39137835  0.88549998     0.14400
H238        H  0.72476805  0.36610156  0.83852843     0.00200
H239        H  0.73471585  0.34117176  0.88601372     0.14800
H240        H  0.77208692  0.36726456  0.86382283     0.14500
C241        C  0.84999058  0.61802435  0.74164365     0.86300
C242        C  0.86596052  0.61886529  0.75235980    -0.53900
C243        C  0.86813571  0.63342185  0.76127529     0.09300
C244        C  0.85362307  0.64595687  0.75891574     0.20200
C245        C  0.83639768  0.62102979  0.75489650    -0.54600
C246        C  0.83785844  0.63577281  0.76365522     0.09400
C247        C  0.85019292  0.63386271  0.73111587    -0.54200
C248        C  0.85238039  0.64844952  0.73974830     0.09900
H249        H  0.87444396  0.60843983  0.75368928     0.14400
H250        H  0.85512058  0.65776017  0.76615176     0.00200
H251        H  0.82654503  0.61207603  0.75748472     0.14800
H252        H  0.84896393  0.63351354  0.71758156     0.14500
C253        C  0.35577367  0.87575330  0.73332308     0.86300
C254        C  0.35442000  0.89157307  0.74441430    -0.53900
C255        C  0.34105865  0.89191693  0.75504478     0.09300
C256        C  0.33002513  0.87599059  0.75367396     0.20200
C257        C  0.35580230  0.86170239  0.74661413    -0.54600
C258        C  0.34222291  0.86141810  0.75702563     0.09400
C259        C  0.33891146  0.87419555  0.72460302    -0.54200
C260        C  0.32538768  0.87450656  0.73492520     0.09900
H261        H  0.36382617  0.90134920  0.74460768     0.14400
H262        H  0.31908222  0.87603549  0.76208586     0.00200
H263        H  0.36609330  0.85313023  0.74834769     0.14800
H264        H  0.33775750  0.87312553  0.71110317     0.14500
C265        C  0.74912897  0.84565447  0.63847607     0.86300
C266        C  0.73484780  0.84596823  0.65130982    -0.53900
C267        C  0.72595727  0.86046643  0.65171801     0.09300
C268        C  0.73164363  0.87337555  0.63846191     0.20200
C269        C  0.73952371  0.84887413  0.62209893    -0.54600
C270        C  0.73017715  0.86340452  0.62163219     0.09400
C271        C  0.75924853  0.86158520  0.64162834    -0.54200
C272        C  0.75051639  0.87610206  0.64166809     0.09900
H273        H  0.73034021  0.83505154  0.65788557     0.14400
H274        H  0.72503815  0.88541728  0.63911976     0.00200
H275        H  0.73921346  0.83952991  0.61220917     0.14800
H276        H  0.77266258  0.86135438  0.64328209     0.14500
O277        O  0.82016811  0.61348101  0.47972005    -0.73100
O278        O  0.82383484  0.64908953  0.51577893    -0.74100
O279        O  0.82512188  0.64921527  0.48014263    -0.62700
O280        O  0.81891031  0.61422430  0.51582244    -0.71100
O281        O  0.84604561  0.60993192  0.51606818    -0.70700
O282        O  0.85240419  0.64562201  0.48134282    -0.61900
O283        O  0.85106822  0.64489055  0.51693235    -0.74400
O284        O  0.84733809  0.60976391  0.48062556    -0.73200
Cu285      Cu  0.82105391  0.63160404  0.49772216     1.04600
Cu286      Cu  0.85013562  0.62742118  0.49867190     1.04300
C287        C  0.83314774  0.60574378  0.47456978     0.93100
C288        C  0.83800756  0.65220126  0.52237297     0.92200
C289        C  0.83977688  0.65329371  0.47542512     0.84400
C290        C  0.83162070  0.60699533  0.52207584     0.90700
O291        O  0.81957005  0.47963822  0.65614142    -0.73100
O292        O  0.81611863  0.51515857  0.62076338    -0.74100
O293        O  0.81617366  0.47955691  0.62074762    -0.62700
O294        O  0.81975093  0.51545380  0.65622536    -0.71100
O295        O  0.84724792  0.51528933  0.65339485    -0.70700
O296        O  0.84369210  0.47989113  0.61825763    -0.61900
O297        O  0.84360499  0.51525791  0.61827069    -0.74400
O298        O  0.84698451  0.47954865  0.65323576    -0.73200
Cu299      Cu  0.81691315  0.49746652  0.63860909     1.04600
Cu300      Cu  0.84631250  0.49751427  0.63574284     1.04300
C301        C  0.83380612  0.47371431  0.66001956     0.93100
C302        C  0.82934185  0.52070790  0.61384330     0.92200
C303        C  0.82950521  0.47413801  0.61392666     0.84400
C304        C  0.83412718  0.52110488  0.66020978     0.90700
O305        O  0.64237830  0.12952578  0.47990011    -0.73100
O306        O  0.60593586  0.12414679  0.51392237    -0.74100
O307        O  0.60723699  0.12824001  0.47849471    -0.62700
O308        O  0.64139363  0.12530378  0.51539024    -0.71100
O309        O  0.63989538  0.15266854  0.51921796    -0.70700
O310        O  0.60650901  0.15588146  0.48144567    -0.61900
O311        O  0.60485370  0.15182307  0.51684731    -0.74400
O312        O  0.64164383  0.15714329  0.48342455    -0.73200
Cu313      Cu  0.62429679  0.12584820  0.49683525     1.04600
Cu314      Cu  0.62323814  0.15533305  0.50036156     1.04300
C315        C  0.64737902  0.14420730  0.47595769     0.93100
C316        C  0.59971351  0.13720745  0.52077667     0.92200
C317        C  0.60167700  0.14251403  0.47395170     0.84400
C318        C  0.64579115  0.13843147  0.52351596     0.90700
O319        O  0.50121127  0.12414887  0.65050738    -0.73100
O320        O  0.46827138  0.12285777  0.61263659    -0.74100
O321        O  0.50324027  0.12245324  0.61462443    -0.62700
O322        O  0.46596398  0.12434285  0.64813742    -0.71100
O323        O  0.46663516  0.15216955  0.64741204    -0.70700
O324        O  0.50352500  0.15006972  0.61341120    -0.61900
O325        O  0.46781847  0.15045407  0.61205376    -0.74400
O326        O  0.50213993  0.15177694  0.64886593    -0.73200
Cu327      Cu  0.48469680  0.12250892  0.63153756     1.04600
Cu328      Cu  0.48507837  0.15208252  0.63039552     1.04300
C329        C  0.50696097  0.13819067  0.65573082     0.93100
C330        C  0.46250864  0.13638321  0.60646409     0.92200
C331        C  0.50916653  0.13593540  0.60842924     0.84400
C332        C  0.46038068  0.13854121  0.65294684     0.90700
O333        O  0.11406604  0.47946926  0.65386629    -0.73100
O334        O  0.11007291  0.51597068  0.61994269    -0.74100
O335        O  0.11178138  0.48042260  0.61863190    -0.62700
O336        O  0.11256518  0.51485261  0.65530016    -0.71100
O337        O  0.14002320  0.51655821  0.65305505    -0.70700
O338        O  0.13932372  0.48157283  0.61735474    -0.61900
O339        O  0.13757851  0.51718504  0.61780289    -0.74400
O340        O  0.14163788  0.48096573  0.65238648    -0.73200
Cu341      Cu  0.11115216  0.49766413  0.63699746     1.04600
Cu342      Cu  0.14059965  0.49915938  0.63508768     1.04300
C343        C  0.12842046  0.47431125  0.65827515     0.93100
C344        C  0.12316077  0.52232590  0.61348380     0.92200
C345        C  0.12551919  0.47534743  0.61241608     0.84400
C346        C  0.12646537  0.52110772  0.65997919     0.90700
O347        O  0.10146039  0.64929642  0.51710517    -0.73100
O348        O  0.10202159  0.61421896  0.48071059    -0.74100
O349        O  0.10184825  0.61396821  0.51648565    -0.62700
O350        O  0.10137301  0.64985463  0.48104931    -0.71100
O351        O  0.12890302  0.64891634  0.47983176    -0.70700
O352        O  0.12930523  0.61606507  0.51776414    -0.61900
O353        O  0.12933278  0.61327993  0.48241476    -0.74400
O354        O  0.12873842  0.65138351  0.51533077    -0.73200
Cu355      Cu  0.10069183  0.63186704  0.49879764     1.04600
Cu356      Cu  0.13000151  0.63246285  0.49880040     1.04300
C357        C  0.11511177  0.65576091  0.52223870     0.93100
C358        C  0.11580372  0.60775300  0.47607051     0.92200
C359        C  0.11569859  0.60968976  0.52303288     0.84400
C360        C  0.11507766  0.65466619  0.47449363     0.90700
O361        O  0.49567879  0.87134195  0.61001339    -0.73100
O362        O  0.45812816  0.87917548  0.64234329    -0.74100
O363        O  0.49332875  0.87801562  0.64506541    -0.62700
O364        O  0.46062108  0.87209058  0.60737073    -0.71100
O365        O  0.45871942  0.84502934  0.61310562    -0.70700
O366        O  0.49274732  0.85062434  0.64922583    -0.61900
O367        O  0.45721264  0.85194276  0.64790306    -0.74400
O368        O  0.49407600  0.84393269  0.61444039    -0.73200
Cu369      Cu  0.47697944  0.87610628  0.62603189     1.04600
Cu370      Cu  0.47564778  0.84693825  0.63136675     1.04300
C371        C  0.50066463  0.85644381  0.60697340     0.93100
C372        C  0.45179441  0.86683799  0.65025315     0.92200
C373        C  0.49838122  0.86513608  0.65302524     0.84400
C374        C  0.45443382  0.85760893  0.60431269     0.90700
O375        O  0.60378296  0.86108107  0.48536518    -0.73100
O376        O  0.63780706  0.86636092  0.52186905    -0.74100
O377        O  0.63869339  0.86408292  0.48606220    -0.62700
O378        O  0.60234526  0.86334620  0.52047204    -0.71100
O379        O  0.60510264  0.83589852  0.52310675    -0.70700
O380        O  0.64049800  0.83633767  0.48738335    -0.61900
O381        O  0.64061365  0.83878385  0.52314818    -0.74400
O382        O  0.60518805  0.83343397  0.48761937    -0.73200
Cu383      Cu  0.62065309  0.86466406  0.50344885     1.04600
Cu384      Cu  0.62298119  0.83514163  0.50541739     1.04300
C385        C  0.59896534  0.84647606  0.48083332     0.93100
C386        C  0.64468636  0.85345240  0.52827304     0.92200
C387        C  0.64486591  0.85027553  0.48086051     0.84400
C388        C  0.59769268  0.84952690  0.52701733     0.90700
O389        O  0.60131282  0.53232564  0.16148992    -0.73100
O390        O  0.63603117  0.49610529  0.15720550    -0.74100
O391        O  0.63666585  0.53156820  0.15881784    -0.62700
O392        O  0.60080648  0.49665271  0.15992455    -0.71100
O393        O  0.59829048  0.49817914  0.13231642    -0.70700
O394        O  0.63476765  0.53212813  0.13113674    -0.61900
O395        O  0.63321419  0.49644763  0.12987412    -0.74400
O396        O  0.59929307  0.53357775  0.13391578    -0.73200
Cu397      Cu  0.61876492  0.51416436  0.16032424     1.04600
Cu398      Cu  0.61634631  0.51518528  0.13085796     1.04300
C399        C  0.59464174  0.53855644  0.14840364     0.93100
C400        C  0.64002414  0.49023770  0.14288366     0.92200
C401        C  0.64152281  0.53715741  0.14471693     0.84400
C402        C  0.59402606  0.49184614  0.14626949     0.90700
O403        O  0.49663908  0.62977119  0.14173364    -0.73100
O404        O  0.46012700  0.66408838  0.13933446    -0.74100
O405        O  0.49572462  0.66501102  0.13647664    -0.62700
O406        O  0.46153953  0.62914206  0.14456713    -0.71100
O407        O  0.46336288  0.63347654  0.17195000    -0.70700
O408        O  0.49787816  0.66917388  0.16385838    -0.61900
O409        O  0.46232397  0.66888199  0.16648483    -0.74400
O410        O  0.49862164  0.63361484  0.16910191    -0.73200
Cu411      Cu  0.47844387  0.64691826  0.13960064     1.04600
Cu412      Cu  0.48062734  0.65149494  0.16881347     1.04300
C413        C  0.50319731  0.62597118  0.15576848     0.93100
C414        C  0.45522973  0.67180961  0.15246560     0.92200
C415        C  0.50237255  0.67256283  0.14893132     0.84400
C416        C  0.45716806  0.62558334  0.15947867     0.90700
O417        O  0.47576313  0.66111227  0.85134458    -0.73100
O418        O  0.50818057  0.62262162  0.85338071    -0.74100
O419        O  0.47296538  0.62590196  0.85303205    -0.62700
O420        O  0.51112238  0.65845254  0.85150111    -0.71100
O421        O  0.51096238  0.66029132  0.87918411    -0.70700
O422        O  0.47312985  0.62712275  0.88075328    -0.61900
O423        O  0.50847951  0.62455182  0.88100564    -0.74400
O424        O  0.47541961  0.66232988  0.87902478    -0.73200
Cu425      Cu  0.49208988  0.64198084  0.85135594     1.04600
Cu426      Cu  0.49207085  0.64364086  0.88095244     1.04300
C427        C  0.47006187  0.66742284  0.86489294     0.93100
C428        C  0.51326656  0.61731535  0.86755565     0.92200
C429        C  0.46686128  0.62159839  0.86710857     0.84400
C430        C  0.51693433  0.66468485  0.86505115     0.90700
O431        O  0.60094204  0.51392721  0.88262467    -0.73100
O432        O  0.63716040  0.47928520  0.87739567    -0.74100
O433        O  0.63643321  0.51467543  0.88135525    -0.62700
O434        O  0.60168637  0.47850271  0.87873419    -0.71100
O435        O  0.60059784  0.48139518  0.85115406    -0.70700
O436        O  0.63540599  0.51733129  0.85374050    -0.61900
O437        O  0.63584381  0.48174656  0.84988353    -0.74400
O438        O  0.60010792  0.51679984  0.85510036    -0.73200
Cu439      Cu  0.61910700  0.49648448  0.88099227     1.04600
Cu440      Cu  0.61797290  0.49941998  0.85152026     1.04300
C441        C  0.59479422  0.52085285  0.86963254     0.93100
C442        C  0.64216578  0.47492399  0.86283922     0.92200
C443        C  0.64133858  0.52170671  0.86791906     0.84400
C444        C  0.59559326  0.47436692  0.86454560     0.90700
C445        C  0.60781789  0.14569242  0.25136506     0.86300
C446        C  0.61181278  0.16004964  0.23918669    -0.53900
C447        C  0.62602830  0.15792109  0.22999989     0.09300
C448        C  0.63598559  0.14207828  0.23503475     0.20200
C449        C  0.60891333  0.12965465  0.24059834    -0.54600
C450        C  0.62360846  0.12741252  0.23213886     0.09400
C451        C  0.62341859  0.14577357  0.26243887    -0.54200
C452        C  0.63806658  0.14362779  0.25422067     0.09900
H453        H  0.60450897  0.17131009  0.23791855     0.14400
H454        H  0.64804159  0.14049870  0.22854781     0.00200
H455        H  0.59851244  0.12101613  0.23944613     0.14800
H456        H  0.62301755  0.14790379  0.27585312     0.14500
C457        C  0.62645295  0.89610637  0.24085523     0.86300
C458        C  0.61118528  0.89346687  0.25196657    -0.53900
C459        C  0.61180229  0.87948166  0.26172973     0.09300
C460        C  0.62808527  0.86926334  0.25965307     0.20200
C461        C  0.64164258  0.89571340  0.25286234    -0.54600
C462        C  0.64241498  0.88189657  0.26306205     0.09400
C463        C  0.62840529  0.87959038  0.23123906    -0.54200
C464        C  0.62934016  0.86540586  0.24062223     0.09900
H465        H  0.60054889  0.90183050  0.25186532     0.14400
H466        H  0.62869284  0.85818922  0.26790451     0.00200
H467        H  0.65140962  0.90510990  0.25279098     0.14800
H468        H  0.62940588  0.87915836  0.21773482     0.14500
O469        O  0.64487724  0.01876916  0.87630621    -0.73100
O470        O  0.64040354  0.98292970  0.84099882    -0.74100
O471        O  0.64219866  0.01876954  0.84103448    -0.62700
O472        O  0.64318782  0.98287917  0.87644625    -0.71100
O473        O  0.61561991  0.98352612  0.87795071    -0.70700
O474        O  0.61479067  0.02050695  0.84374517    -0.61900
O475        O  0.61299890  0.98495680  0.84233913    -0.74400
O476        O  0.61752757  0.01905372  0.87919417    -0.73200
Cu477      Cu  0.64362520  0.00076862  0.85862378     1.04600
Cu478      Cu  0.61428720  0.00203933  0.86088013     1.04300
C479        C  0.63186441  0.02464655  0.88334632     0.93100
C480        C  0.62599225  0.97835594  0.83593337     0.92200
C481        C  0.62834255  0.02545687  0.83699725     0.84400
C482        C  0.62955223  0.97750776  0.88269109     0.90700
O483        O  0.64522243  0.88144703  0.97782113    -0.73100
O484        O  0.64645961  0.84690189  0.01461096    -0.74100
O485        O  0.64440687  0.84583118  0.97867174    -0.62700
O486        O  0.64727648  0.88218310  0.01338261    -0.71100
O487        O  0.61973742  0.88278264  0.01487179    -0.70700
O488        O  0.61691063  0.84679885  0.97961079    -0.61900
O489        O  0.61890078  0.84729732  0.01575458    -0.74400
O490        O  0.61801366  0.88225459  0.97923859    -0.73200
Cu491      Cu  0.64677248  0.86400054  0.99604232     1.04600
Cu492      Cu  0.61743623  0.86473094  0.99741658     1.04300
C493        C  0.63148845  0.88750363  0.97259309     0.93100
C494        C  0.63287097  0.84216610  0.02144187     0.92200
C495        C  0.63024757  0.84100279  0.97315202     0.84400
C496        C  0.63395144  0.88809840  0.01973351     0.90700
C497        C  0.60053869  0.27002846  0.85509497     0.86300
C498        C  0.60289402  0.25679566  0.84117481    -0.53900
C499        C  0.61712049  0.24749378  0.84234444     0.09300
C500        C  0.62775974  0.25211038  0.85782045     0.20200
C501        C  0.60142276  0.25908508  0.87101794    -0.54600
C502        C  0.61566444  0.24968027  0.87275673     0.09400
C503        C  0.61660620  0.28029110  0.85505168    -0.54200
C504        C  0.63082296  0.27119446  0.85633462     0.09900
H505        H  0.59346305  0.25362367  0.83206430     0.14400
H506        H  0.63950163  0.24499457  0.85893123     0.00200
H507        H  0.59116323  0.25832237  0.87979390     0.14800
H508        H  0.61673121  0.29384453  0.85373726     0.14500
O509        O  0.64897351  0.12756248  0.00840124    -0.73100
O510        O  0.64289213  0.16129468  0.97156651    -0.74100
O511        O  0.64497577  0.16265352  0.00725868    -0.62700
O512        O  0.64731733  0.12598646  0.97285302    -0.71100
O513        O  0.61985056  0.12317531  0.97380760    -0.70700
O514        O  0.61765251  0.15895735  0.00927447    -0.61900
O515        O  0.61559306  0.15866617  0.97395918    -0.74400
O516        O  0.62166951  0.12376351  0.00908484    -0.73200
Cu517      Cu  0.64700594  0.14451475  0.98991433     1.04600
Cu518      Cu  0.61775034  0.14103957  0.99153305     1.04300
C519        C  0.63616214  0.12040874  0.01463987     0.93100
C520        C  0.62821133  0.16544985  0.96703915     0.92200
C521        C  0.63102973  0.16627745  0.01397516     0.84400
C522        C  0.63398219  0.11869698  0.96801937     0.90700
O523        O  0.64875081  0.02644618  0.14394025    -0.73100
O524        O  0.65086118  0.98870302  0.11014718    -0.74100
O525        O  0.65119883  0.02442158  0.10865196    -0.62700
O526        O  0.64888187  0.99089625  0.14594013    -0.71100
O527        O  0.62149011  0.99004797  0.14367065    -0.70700
O528        O  0.62366626  0.02469157  0.10727626    -0.61900
O529        O  0.62350035  0.98876055  0.10871098    -0.74400
O530        O  0.62126164  0.02541025  0.14271422    -0.73200
Cu531      Cu  0.65089946  0.00758542  0.12718699     1.04600
Cu532      Cu  0.62155978  0.00723568  0.12546193     1.04300
C533        C  0.63454699  0.03174058  0.14881547     0.93100
C534        C  0.63738168  0.98258773  0.10413904     0.92200
C535        C  0.63780427  0.03024741  0.10241450     0.84400
C536        C  0.63483551  0.98520605  0.15082427     0.90700
C537        C  0.60966974  0.26920468  0.12795393     0.86300
C538        C  0.60986993  0.25834769  0.11202922    -0.53900
C539        C  0.62365093  0.24864487  0.10998614     0.09300
C540        C  0.63620246  0.25040037  0.12458686     0.20200
C541        C  0.61181828  0.25589940  0.14183741    -0.54600
C542        C  0.62582461  0.24609495  0.14035269     0.09400
C543        C  0.62598691  0.27894106  0.12783920    -0.54200
C544        C  0.63990438  0.26944612  0.12590400     0.09900
H545        H  0.59947728  0.25751884  0.10344133     0.14400
H546        H  0.64752846  0.24265058  0.12308260     0.00200
H547        H  0.60282603  0.25410316  0.15178763     0.14800
H548        H  0.62646795  0.29250888  0.12909111     0.14500
O549        O  0.34445431  0.89848108  0.01531300    -0.73100
O550        O  0.34293682  0.86374427  0.97866557    -0.74100
O551        O  0.34380376  0.86316763  0.01455166    -0.62700
O552        O  0.34325401  0.89887303  0.97978479    -0.71100
O553        O  0.37082742  0.89795899  0.97821680    -0.70700
O554        O  0.37139718  0.86339696  0.01456111    -0.61900
O555        O  0.37037107  0.86242787  0.97885755    -0.74400
O556        O  0.37201358  0.89867132  0.01376413    -0.73200
Cu557      Cu  0.34265396  0.88105669  0.99710115     1.04600
Cu558      Cu  0.37211700  0.88059677  0.99629540     1.04300
C559        C  0.35855896  0.90385565  0.02047386     0.93100
C560        C  0.35643160  0.85771262  0.97274025     0.92200
C561        C  0.35762336  0.85806963  0.02051029     0.84400
C562        C  0.35688496  0.90377136  0.97326455     0.90700
O563        O  0.36166369  0.02945948  0.87472519    -0.73100
O564        O  0.35353271  0.99393835  0.83970164    -0.74100
O565        O  0.35571809  0.02939263  0.83965935    -0.62700
O566        O  0.35960033  0.99436023  0.87462864    -0.71100
O567        O  0.33229499  0.99477655  0.87831218    -0.70700
O568        O  0.32888554  0.03198748  0.84514557    -0.61900
O569        O  0.32627762  0.99609689  0.84356639    -0.74400
O570        O  0.33454446  0.03007894  0.87989701    -0.73200
Cu571      Cu  0.35855814  0.01174345  0.85694238     1.04600
Cu572      Cu  0.32953000  0.01331084  0.86182069     1.04300
C573        C  0.34933601  0.03497584  0.88317704     0.93100
C574        C  0.33868263  0.98926748  0.83627538     0.92200
C575        C  0.34184325  0.03668216  0.83718689     0.84400
C576        C  0.34661266  0.98900137  0.88204787     0.90700
C577        C  0.36591551  0.86682332  0.26919032     0.86300
C578        C  0.36349733  0.85239524  0.25680570    -0.53900
C579        C  0.34859234  0.85236709  0.24870080     0.09300
C580        C  0.33697876  0.86685516  0.25398979     0.20200
C581        C  0.36220328  0.88276178  0.25905398    -0.54600
C582        C  0.34731564  0.88294178  0.25072532     0.09400
C583        C  0.35077517  0.86585885  0.28109345    -0.54200
C584        C  0.33556312  0.86562197  0.27324798     0.09900
H585        H  0.37318425  0.84332577  0.25405043     0.14400
H586        H  0.32465964  0.86649362  0.24783669     0.00200
H587        H  0.37045229  0.89339846  0.25874160     0.14800
H588        H  0.35199809  0.86551832  0.29460088     0.14500
O589        O  0.36289833  0.01960829  0.16544502    -0.73100
O590        O  0.36834748  0.98499265  0.12933717    -0.74100
O591        O  0.36805110  0.02055523  0.13009608    -0.62700
O592        O  0.36296680  0.98389879  0.16444261    -0.71100
O593        O  0.33570779  0.98402079  0.16041015    -0.70700
O594        O  0.34075684  0.02007072  0.12606167    -0.61900
O595        O  0.34104474  0.98476664  0.12531997    -0.74400
O596        O  0.33589363  0.02013060  0.16097605    -0.73200
Cu597      Cu  0.36650942  0.00226454  0.14753683     1.04600
Cu598      Cu  0.33740683  0.00221919  0.14314298     1.04300
C599        C  0.34864947  0.02580094  0.16872679     0.93100
C600        C  0.35558889  0.97963445  0.12141607     0.92200
C601        C  0.35512158  0.02583320  0.12243008     0.84400
C602        C  0.34851103  0.97800440  0.16766995     0.90700
O603        O  0.34004272  0.15147357  0.02529384    -0.73100
O604        O  0.34116632  0.11667323  0.98899382    -0.74100
O605        O  0.34176532  0.11622945  0.02458854    -0.62700
O606        O  0.33934673  0.15193948  0.98963529    -0.71100
O607        O  0.36688958  0.15276255  0.98834461    -0.70700
O608        O  0.36928054  0.11848305  0.02492996    -0.61900
O609        O  0.36875975  0.11753856  0.98923934    -0.74400
O610        O  0.36741826  0.15402452  0.02392537    -0.73200
Cu611      Cu  0.33963126  0.13402360  0.00716304     1.04600
Cu612      Cu  0.36906067  0.13574190  0.00663047     1.04300
C613        C  0.35352116  0.15834103  0.03035110     0.93100
C614        C  0.35515668  0.11180336  0.98320685     0.92200
C615        C  0.35586153  0.11199541  0.03056705     0.84400
C616        C  0.35269878  0.15759659  0.98306444     0.90700
C617        C  0.34515925  0.23916317  0.88589597     0.86300
C618        C  0.35935028  0.25188809  0.88456573    -0.53900
C619        C  0.35874096  0.26180508  0.87079627     0.09300
C620        C  0.34351082  0.25841366  0.85943118     0.20200
C621        C  0.32893395  0.24961305  0.88455204    -0.54600
C622        C  0.32813993  0.26015559  0.87099800     0.09400
C623        C  0.34520787  0.22966207  0.86912913    -0.54200
C624        C  0.34420092  0.23939267  0.85511932     0.09900
H625        H  0.36933854  0.25276812  0.89368418     0.14400
H626        H  0.34314374  0.26691069  0.84855974     0.00200
H627        H  0.31851661  0.24815290  0.89299223     0.14800
H628        H  0.34546552  0.21606816  0.86841534     0.14500
C629        C  0.11444778  0.62604302  0.23228709     0.86300
C630        C  0.11330617  0.61245451  0.24604363    -0.53900
C631        C  0.12612887  0.61257289  0.25732334     0.09300
C632        C  0.13842130  0.62714134  0.25454028     0.20200
C633        C  0.11496486  0.64226786  0.24250650    -0.54600
C634        C  0.12725984  0.64309252  0.25413528     0.09400
C635        C  0.13196645  0.62435150  0.22502566    -0.54200
C636        C  0.14480072  0.62452698  0.23636276     0.09900
H637        H  0.10299271  0.60388010  0.24759322     0.14400
H638        H  0.14801058  0.62734634  0.26431744     0.00200
H639        H  0.10574074  0.65211615  0.24122123     0.14800
H640        H  0.13394380  0.62354651  0.21162892     0.14500
C641        C  0.86019484  0.62764639  0.22844671     0.86300
C642        C  0.86232878  0.64269385  0.24058549    -0.53900
C643        C  0.84971542  0.64481673  0.25193955     0.09300
C644        C  0.83613992  0.63104616  0.25027729     0.20200
C645        C  0.85833617  0.61272926  0.24046679    -0.54600
C646        C  0.84588132  0.61435264  0.25208912     0.09400
C647        C  0.84308864  0.62950970  0.22062732    -0.54200
C648        C  0.83048012  0.63126932  0.23174058     0.09900
H649        H  0.87330901  0.65057063  0.24052595     0.14400
H650        H  0.82583529  0.63297856  0.25924361     0.00200
H651        H  0.86663704  0.60254746  0.24085577     0.14800
H652        H  0.84101653  0.62922249  0.20721387     0.14500
O653        O  0.00757887  0.65910534  0.84633241    -0.73100
O654        O  0.97200835  0.66229402  0.88188665    -0.74100
O655        O  0.00708508  0.66163719  0.88179804    -0.62700
O656        O  0.97171798  0.65988637  0.84596655    -0.71100
O657        O  0.97193060  0.63213041  0.84687891    -0.70700
O658        O  0.00581742  0.63392288  0.88406098    -0.61900
O659        O  0.97049779  0.63469328  0.88244696    -0.74400
O660        O  0.00782012  0.63155849  0.84900034    -0.73200
Cu661      Cu  0.98956804  0.66168950  0.86383021     1.04600
Cu662      Cu  0.98893791  0.63212577  0.86556624     1.04300
C663        C  0.01402082  0.64488808  0.84272273     0.93100
C664        C  0.96587005  0.64893377  0.88815843     0.92200
C665        C  0.01183277  0.64804643  0.88867806     0.84400
C666        C  0.96612695  0.64573052  0.84082766     0.90700
O667        O  0.83441291  0.63020015  0.01697061    -0.73100
O668        O  0.87231772  0.63151094  0.98380001    -0.74100
O669        O  0.86996739  0.63237748  0.01935550    -0.62700
O670        O  0.83715440  0.62910248  0.98150714    -0.71100
O671        O  0.83578482  0.65686605  0.98059405    -0.70700
O672        O  0.86785918  0.65986959  0.01920964    -0.61900
O673        O  0.87080682  0.65926665  0.98354729    -0.74400
O674        O  0.83304034  0.65791600  0.01588128    -0.73200
Cu675      Cu  0.85353078  0.62981238  0.00046993     1.04600
Cu676      Cu  0.85184363  0.65941155  0.99979609     1.04300
C677        C  0.82764718  0.64399333  0.02150794     0.93100
C678        C  0.87737224  0.64567339  0.97830151     0.92200
C679        C  0.87408205  0.64660427  0.02551246     0.84400
C680        C  0.83141666  0.64247495  0.97497496     0.90700
C681        C  0.23035354  0.65720594  0.88639285     0.86300
C682        C  0.24065684  0.64098244  0.88354978    -0.53900
C683        C  0.24856020  0.63974373  0.86833510     0.09300
C684        C  0.24504581  0.65510934  0.85724329     0.20200
C685        C  0.24240648  0.67146457  0.88314798    -0.54600
C686        C  0.25016972  0.67061255  0.86810603     0.09400
C687        C  0.21850918  0.65721989  0.87129049    -0.54200
C688        C  0.22586102  0.65568360  0.85595997     0.09900
H689        H  0.24128187  0.63097328  0.89256896     0.14400
H690        H  0.25099068  0.65421829  0.84494083     0.00200
H691        H  0.24493825  0.68133211  0.89222654     0.14800
H692        H  0.20511735  0.65784488  0.87270488     0.14500
O693        O  0.14131370  0.63673471  0.98543913    -0.73100
O694        O  0.10387751  0.63721209  0.01886480    -0.74100
O695        O  0.10589143  0.63769144  0.98352596    -0.62700
O696        O  0.13912228  0.63594947  0.02075908    -0.71100
O697        O  0.14062580  0.66371790  0.02121720    -0.70700
O698        O  0.10567321  0.66538784  0.98485057    -0.61900
O699        O  0.10521581  0.66502889  0.01995353    -0.74400
O700        O  0.14137417  0.66453779  0.98571169    -0.73200
Cu701      Cu  0.12251609  0.63593754  0.00210169     1.04600
Cu702      Cu  0.12327859  0.66564334  0.00292135     1.04300
C703        C  0.14733861  0.65067605  0.98040162     0.93100
C704        C  0.09871971  0.65123437  0.02464628     0.92200
C705        C  0.10000140  0.65169581  0.97866494     0.84400
C706        C  0.14535529  0.64945685  0.02671520     0.90700
O707        O  0.00618781  0.62580848  0.15132291    -0.73100
O708        O  0.97032684  0.63179243  0.11659540    -0.74100
O709        O  0.00560130  0.63242624  0.11711952    -0.62700
O710        O  0.97074274  0.62436536  0.15106453    -0.71100
O711        O  0.97012978  0.65149132  0.15738351    -0.70700
O712        O  0.00405058  0.65974716  0.12090250    -0.61900
O713        O  0.96877003  0.65887531  0.12284339    -0.74400
O714        O  0.00618505  0.65324654  0.15582079    -0.73200
Cu715      Cu  0.98823152  0.62768920  0.13392198     1.04600
Cu716      Cu  0.98729255  0.65681749  0.13956632     1.04300
C717        C  0.01247013  0.63878173  0.15837633     0.93100
C718        C  0.96379689  0.64623748  0.11435228     0.92200
C719        C  0.01024682  0.64713320  0.11319119     0.84400
C720        C  0.96441208  0.63658469  0.15911273     0.90700
C721        C  0.23029234  0.64245316  0.12046784     0.86300
C722        C  0.24023405  0.65888909  0.12244558    -0.53900
C723        C  0.24997141  0.66005453  0.13641955     0.09300
C724        C  0.24876253  0.64420761  0.14741495     0.20200
C725        C  0.24310618  0.62851110  0.12162587    -0.54600
C726        C  0.25268360  0.62906058  0.13562626     0.09400
C727        C  0.22057203  0.64159208  0.13714007    -0.54200
C728        C  0.23004571  0.64265029  0.15145307     0.09900
H729        H  0.23903336  0.66930942  0.11395409     0.14400
H730        H  0.25660064  0.64528095  0.15856082     0.00200
H731        H  0.24414469  0.61857103  0.11235211     0.14800
H732        H  0.20715269  0.64033436  0.13753013     0.14500
O733        O  0.86689457  0.38246550  0.01963997    -0.73100
O734        O  0.83046073  0.38313782  0.98504414    -0.74100
O735        O  0.83144659  0.38207639  0.02036282    -0.62700
O736        O  0.86580522  0.38392419  0.98432074    -0.71100
O737        O  0.86643463  0.35610621  0.98327043    -0.70700
O738        O  0.83141820  0.35424105  0.01929970    -0.61900
O739        O  0.83124188  0.35539616  0.98371729    -0.74400
O740        O  0.86681033  0.35465915  0.01868007    -0.73200
Cu741      Cu  0.84862371  0.38386601  0.00241056     1.04600
Cu742      Cu  0.84896645  0.35412572  0.00123242     1.04300
C743        C  0.87274531  0.36838714  0.02442963     0.93100
C744        C  0.82522613  0.36931500  0.97877699     0.92200
C745        C  0.82588921  0.36797939  0.02541195     0.84400
C746        C  0.87161155  0.37036500  0.97815885     0.90700
O747        O  0.96888338  0.36184724  0.84940324    -0.73100
O748        O  0.00357855  0.36233899  0.88576546    -0.74100
O749        O  0.96782982  0.36233291  0.88471616    -0.62700
O750        O  0.00379502  0.36134799  0.85061190    -0.71100
O751        O  0.00459389  0.38912146  0.85043765    -0.70700
O752        O  0.96798630  0.38995176  0.88501886    -0.61900
O753        O  0.00339448  0.39012966  0.88555747    -0.74400
O754        O  0.96927691  0.38963679  0.84904933    -0.73200
Cu755      Cu  0.98594773  0.36102965  0.86771730     1.04600
Cu756      Cu  0.98623252  0.39069633  0.86753487     1.04300
C757        C  0.96395071  0.37570016  0.84317757     0.93100
C758        C  0.00946744  0.37639198  0.89086376     0.92200
C759        C  0.96210493  0.37608487  0.89046030     0.84400
C760        C  0.01004347  0.37498116  0.84521298     0.90700
O761        O  0.01052269  0.38592510  0.11137291    -0.73100
O762        O  0.97364598  0.37883046  0.14520524    -0.74100
O763        O  0.00877671  0.38345175  0.14677429    -0.62700
O764        O  0.97483701  0.38170094  0.10995465    -0.71100
O765        O  0.97780488  0.35413577  0.10780861    -0.70700
O766        O  0.01199045  0.35593589  0.14458080    -0.61900
O767        O  0.97651180  0.35143241  0.14275066    -0.74400
O768        O  0.01299787  0.35854051  0.10889654    -0.73200
Cu769      Cu  0.99186576  0.38343032  0.12836010     1.04600
Cu770      Cu  0.99502748  0.35408055  0.12594708     1.04300
C771        C  0.01775746  0.37325460  0.10476211     0.93100
C772        C  0.96888329  0.36400217  0.14901289     0.92200
C773        C  0.01574164  0.36993856  0.15153015     0.84400
C774        C  0.97050895  0.36764813  0.10352445     0.90700
C775        C  0.87057776  0.36031003  0.22895577     0.86300
C776        C  0.87155836  0.37576852  0.24070920    -0.53900
C777        C  0.85770105  0.37859031  0.25019287     0.09300
C778        C  0.84390277  0.36548279  0.24709281     0.20200
C779        C  0.86571198  0.34555261  0.24015890    -0.54600
C780        C  0.85218849  0.34824702  0.25027355     0.09400
C781        C  0.85476612  0.36389212  0.21871937    -0.54200
C782        C  0.84072436  0.36597782  0.22806505     0.09900
H783        H  0.88202718  0.38430443  0.24100250     0.14400
H784        H  0.83270512  0.36816336  0.25464987     0.00200
H785        H  0.87271290  0.33394032  0.24019545     0.14800
H786        H  0.85450625  0.36449926  0.20517178     0.14500
O787        O  0.11401160  0.39131445  0.97502104    -0.73100
O788        O  0.15070372  0.38972918  0.00896989    -0.74100
O789        O  0.14939757  0.38930569  0.97363508    -0.62700
O790        O  0.11504251  0.39148550  0.01063825    -0.71100
O791        O  0.11336837  0.36373000  0.01048496    -0.70700
O792        O  0.14750101  0.36171676  0.97342852    -0.61900
O793        O  0.14888005  0.36214230  0.00940039    -0.74400
O794        O  0.11232016  0.36354262  0.97507611    -0.73200
Cu795      Cu  0.13235136  0.39140637  0.99208443     1.04600
Cu796      Cu  0.13052813  0.36182046  0.99213264     1.04300
C797        C  0.10734314  0.37773437  0.96972665     0.93100
C798        C  0.15570812  0.37570072  0.01462871     0.92200
C799        C  0.15374437  0.37517396  0.96743947     0.84400
C800        C  0.10856689  0.37791482  0.01618258     0.90700
C801        C  0.25078232  0.39058189  0.84822797     0.86300
C802        C  0.26151160  0.37465521  0.84930729    -0.53900
C803        C  0.25296374  0.35998517  0.85157208     0.09300
C804        C  0.23396494  0.36277181  0.85223724     0.20200
C805        C  0.23852598  0.38714404  0.83423140    -0.54600
C806        C  0.22961340  0.37280569  0.83611085     0.09400
C807        C  0.24032919  0.38978035  0.86448026    -0.54200
C808        C  0.23145177  0.37522471  0.86686057     0.09900
H809        H  0.27494928  0.37499051  0.84892734     0.14400
H810        H  0.22718261  0.35097665  0.85392795     0.00200
H811        H  0.23668073  0.39563086  0.82380758     0.14800
H812        H  0.24013027  0.39993074  0.87351411     0.14500
C813        C  0.14338880  0.23281156  0.63651590     0.86300
C814        C  0.12704818  0.22286971  0.63711186    -0.53900
C815        C  0.11292460  0.23219473  0.63522732     0.09300
C816        C  0.11649620  0.25122685  0.63348192     0.20200
C817        C  0.14191991  0.24221995  0.61979528    -0.54600
C818        C  0.12850621  0.25246330  0.61850377     0.09400
C819        C  0.14147933  0.24636274  0.65010913    -0.54200
C820        C  0.12731786  0.25582924  0.64884852     0.09900
H821        H  0.12669078  0.20931820  0.63834846     0.14400
H822        H  0.10518180  0.25900921  0.63204909     0.00200
H823        H  0.15026226  0.24085665  0.60935535     0.14800
H824        H  0.15044510  0.24809749  0.66013234     0.14500
C825        C  0.87591125  0.24034090  0.63066829     0.86300
C826        C  0.87445892  0.25307232  0.61607393    -0.53900
C827        C  0.86007364  0.26238116  0.61599224     0.09300
C828        C  0.84883663  0.25860890  0.63108620     0.20200
C829        C  0.87455899  0.25183998  0.64587095    -0.54600
C830        C  0.86046049  0.26112444  0.64650890     0.09400
C831        C  0.85960714  0.23038216  0.63048111    -0.54200
C832        C  0.84521864  0.23953186  0.62996478     0.09900
H833        H  0.88430030  0.25571256  0.60726134     0.14400
H834        H  0.83777132  0.26655481  0.63097456     0.00200
H835        H  0.88421173  0.25287640  0.65534128     0.14800
H836        H  0.85965077  0.21678586  0.63092996     0.14500
O837        O  0.96466511  0.84663108  0.65445683    -0.73100
O838        O  0.99950041  0.88221028  0.65813297    -0.74100
O839        O  0.96431183  0.88233411  0.65747050    -0.62700
O840        O  0.99996225  0.84708569  0.65493741    -0.71100
O841        O  0.99982809  0.84884164  0.62731919    -0.70700
O842        O  0.96512096  0.88487446  0.62987504    -0.61900
O843        O  0.00033798  0.88413838  0.63044812    -0.74400
O844        O  0.96473997  0.84927438  0.62683708    -0.73200
Cu845      Cu  0.98203060  0.86448778  0.65721857     1.04600
Cu846      Cu  0.98246907  0.86687902  0.62765692     1.04300
C847        C  0.95939611  0.84215024  0.64005230     0.93100
C848        C  0.00562551  0.88852841  0.64487340     0.92200
C849        C  0.95932245  0.88939441  0.64406129     0.84400
C850        C  0.00561457  0.84245462  0.64071945     0.90700
O851        O  0.86487027  0.02135340  0.63880533    -0.73100
O852        O  0.83010149  0.98506956  0.63724975    -0.74100
O853        O  0.82943757  0.02076886  0.63920866    -0.62700
O854        O  0.86533645  0.98577566  0.63698993    -0.71100
O855        O  0.86577359  0.98467914  0.66463576    -0.70700
O856        O  0.82942921  0.01961894  0.66687806    -0.61900
O857        O  0.83018640  0.98374761  0.66495481    -0.74400
O858        O  0.86522839  0.02021129  0.66652752    -0.73200
Cu859      Cu  0.84739318  0.00333125  0.63713702     1.04600
Cu860      Cu  0.84762930  0.00205091  0.66673817     1.04300
C861        C  0.87075651  0.02626995  0.65283522     0.93100
C862        C  0.82485667  0.97848970  0.65079209     0.92200
C863        C  0.82363711  0.02565792  0.65328528     0.84400
C864        C  0.87131693  0.97971926  0.65046929     0.90700
C865        C  0.24622012  0.85496001  0.61428824     0.86300
C866        C  0.23496529  0.83919155  0.61597459    -0.53900
C867        C  0.22415127  0.83950578  0.62931867     0.09300
C868        C  0.22551117  0.85588757  0.63961821     0.20200
C869        C  0.23326556  0.86893225  0.61321548    -0.54600
C870        C  0.22291612  0.87007223  0.62652761     0.09400
C871        C  0.25448954  0.85727862  0.63143832    -0.54200
C872        C  0.24403217  0.85702408  0.64498891     0.09900
H873        H  0.23484893  0.82902192  0.60692985     0.14400
H874        H  0.21670995  0.85594229  0.65010685     0.00200
H875        H  0.23197801  0.87722115  0.60258422     0.14800
H876        H  0.26785140  0.85888315  0.63264415     0.14500
O877        O  0.10724341  0.00986065  0.65923360    -0.73100
O878        O  0.14270882  0.97508730  0.65120051    -0.74100
O879        O  0.14223536  0.01085037  0.65346496    -0.62700
O880        O  0.10813955  0.97472483  0.65727458    -0.71100
O881        O  0.10292225  0.97672909  0.63008920    -0.70700
O882        O  0.13868375  0.01137988  0.62591273    -0.61900
O883        O  0.13739528  0.97547906  0.62404875    -0.74400
O884        O  0.10388081  0.01191150  0.63185443    -0.73200
Cu885      Cu  0.12534592  0.99263225  0.65623435     1.04600
Cu886      Cu  0.12064881  0.99397510  0.62700600     1.04300
C887        C  0.09963831  0.01608934  0.64669175     0.93100
C888        C  0.14501929  0.96912407  0.63650423     0.92200
C889        C  0.14582382  0.01680341  0.63914284     0.84400
C890        C  0.09988705  0.97032866  0.64436086     0.90700
O891        O  0.97293968  0.11526795  0.65871848    -0.73100
O892        O  0.00917743  0.14983094  0.65486083    -0.74100
O893        O  0.97402903  0.15080951  0.65502778    -0.62700
O894        O  0.00813577  0.11434318  0.65858980    -0.71100
O895        O  0.00737454  0.11091577  0.63104323    -0.70700
O896        O  0.97423650  0.14814647  0.62736990    -0.61900
O897        O  0.00947401  0.14631504  0.62736077    -0.74400
O898        O  0.97189248  0.11304558  0.63121808    -0.73200
Cu899      Cu  0.99109145  0.13266029  0.65775716     1.04600
Cu900      Cu  0.99076430  0.12947621  0.62828646     1.04300
C901        C  0.96639694  0.10885455  0.64560004     0.93100
C902        C  0.01506800  0.15355063  0.64051533     0.92200
C903        C  0.96884890  0.15524761  0.64062066     0.84400
C904        C  0.01302726  0.10679874  0.64537018     0.90700
C905        C  0.25238495  0.12661884  0.61556070     0.86300
C906        C  0.24175040  0.11039570  0.61576427    -0.53900
C907        C  0.23036014  0.10955780  0.62853883     0.09300
C908        C  0.23097007  0.12496781  0.64029610     0.20200
C909        C  0.23975871  0.14094743  0.61595577    -0.54600
C910        C  0.22861473  0.14022119  0.62879339     0.09400
C911        C  0.26022283  0.12652832  0.63312672    -0.54200
C912        C  0.24923895  0.12602806  0.64616443     0.09900
H913        H  0.24316251  0.10039120  0.60663168     0.14400
H914        H  0.22175507  0.12432689  0.65056549     0.00200
H915        H  0.23986034  0.15110989  0.60696263     0.14800
H916        H  0.27347809  0.12597573  0.63529315     0.14500
O917        O  0.86556098  0.97809520  0.36745730    -0.73100
O918        O  0.83066596  0.01379234  0.37237690    -0.74100
O919        O  0.82990738  0.97841371  0.37130874    -0.62700
O920        O  0.86572076  0.01369402  0.36853962    -0.71100
O921        O  0.86303681  0.01403256  0.34091265    -0.70700
O922        O  0.82652855  0.97954734  0.34381093    -0.61900
O923        O  0.82830542  0.01505818  0.34483539    -0.74400
O924        O  0.86197800  0.97830483  0.34001316    -0.73200
Cu925      Cu  0.84808967  0.99587840  0.37087910     1.04600
Cu926      Cu  0.84487957  0.99666065  0.34143817     1.04300
C927        C  0.86953053  0.97275202  0.35291075     0.93100
C928        C  0.82418579  0.02029819  0.35936104     0.92200
C929        C  0.82214972  0.97388872  0.35806752     0.84400
C930        C  0.86973113  0.01966282  0.35430050     0.90700
O931        O  0.96536052  0.87798397  0.33194773    -0.73100
O932        O  0.99783288  0.84013173  0.33822991    -0.74100
O933        O  0.96286805  0.84259498  0.33811689    -0.62700
O934        O  0.00067304  0.87517073  0.33202158    -0.71100
O935        O  0.00132710  0.87933722  0.35941239    -0.70700
O936        O  0.96224348  0.84847393  0.36496850    -0.61900
O937        O  0.99704104  0.84409045  0.36556638    -0.74400
O938        O  0.96638278  0.88312504  0.35918058    -0.73200
Cu939      Cu  0.98168021  0.85882925  0.33411035     1.04600
Cu940      Cu  0.98181223  0.86394049  0.36319851     1.04300
C941        C  0.96079666  0.88659024  0.34466904     0.93100
C942        C  0.00214681  0.83571923  0.35294234     0.92200
C943        C  0.95656304  0.84016586  0.35255329     0.84400
C944        C  0.00690326  0.88252675  0.34479939     0.90700
O945        O  0.95944015  0.12024476  0.36611492    -0.73100
O946        O  0.99554476  0.15542135  0.36607606    -0.74100
O947        O  0.96004305  0.15627723  0.36736626    -0.62700
O948        O  0.99480255  0.11997802  0.36513737    -0.71100
O949        O  0.99342801  0.12013374  0.33745128    -0.70700
O950        O  0.95968851  0.15762283  0.33968533    -0.61900
O951        O  0.99490383  0.15578466  0.33837850    -0.74400
O952        O  0.95778189  0.12196498  0.33872237    -0.73200
Cu953      Cu  0.97742335  0.13796601  0.36713402     1.04600
Cu954      Cu  0.97637652  0.13887804  0.33760692     1.04300
C955        C  0.95282259  0.11541358  0.35237487     0.93100
C956        C  0.00116083  0.16089224  0.35217483     0.92200
C957        C  0.95463140  0.16291343  0.35390309     0.84400
C958        C  0.99973779  0.11445463  0.35097729     0.90700
C959        C  0.86177963  0.24776340  0.35712474     0.86300
C960        C  0.85801427  0.26042101  0.34338763    -0.53900
C961        C  0.84251521  0.26717473  0.34403970     0.09300
C962        C  0.83179571  0.26071008  0.35867921     0.20200
C963        C  0.85803156  0.25748395  0.37342037    -0.54600
C964        C  0.84247019  0.26450887  0.37435701     0.09400
C965        C  0.84746904  0.23481586  0.35652273    -0.54200
C966        C  0.83174566  0.24136241  0.35719471     0.09900
H967        H  0.86716447  0.26426902  0.33416596     0.14400
H968        H  0.81906040  0.26587913  0.35883926     0.00200
H969        H  0.86648476  0.25838885  0.38384474     0.14800
H970        H  0.84971293  0.22139681  0.35611305     0.14500
O971        O  0.09699472  0.98397196  0.33809353    -0.73100
O972        O  0.13186810  0.01890027  0.34693429    -0.74100
O973        O  0.13167703  0.98334719  0.34409090    -0.62700
O974        O  0.09668676  0.01942490  0.34114755    -0.71100
O975        O  0.09311063  0.01818836  0.36834976    -0.70700
O976        O  0.12674407  0.98120459  0.37128945    -0.61900
O977        O  0.12799647  0.01653357  0.37429689    -0.74400
O978        O  0.09211344  0.98234172  0.36530857    -0.73200
Cu979      Cu  0.11447623  0.00154969  0.34162822     1.04600
Cu980      Cu  0.10980172  0.99953755  0.37075204     1.04300
C981        C  0.08920662  0.97743025  0.35033874     0.93100
C982        C  0.13565999  0.02300221  0.36191877     0.92200
C983        C  0.13442018  0.97635408  0.35817092     0.84400
C984        C  0.08924563  0.02462441  0.35429215     0.90700
C985        C  0.21084831  0.87511330  0.36317754     0.86300
C986        C  0.22313942  0.87295838  0.37795152    -0.53900
C987        C  0.23296020  0.85890486  0.37708466     0.09300
C988        C  0.23009614  0.84861329  0.36086064     0.20200
C989        C  0.22267473  0.87523753  0.34817072    -0.54600
C990        C  0.23278378  0.86166553  0.34676171     0.09400
C991        C  0.20145378  0.85848852  0.36211488    -0.54200
C992        C  0.21117901  0.84453746  0.36074636     0.09900
H993        H  0.22490513  0.88218721  0.38777068     0.14400
H994        H  0.23810893  0.83737879  0.35970939     0.00200
H995        H  0.22390516  0.88594018  0.33991109     0.14800
H996        H  0.18795573  0.85783079  0.36246957     0.14500
C997        C  0.11429750  0.26114676  0.37775542     0.86300
C998        C  0.09894605  0.24982593  0.37560232    -0.53900
C999        C  0.09884618  0.24024356  0.36142559     0.09300
C1000       C  0.11456213  0.24262183  0.35052901     0.20200
C1001       C  0.12863259  0.24825873  0.37692098    -0.54600
C1002       C  0.12913978  0.23879358  0.36254243     0.09400
C1003       C  0.11570918  0.27110550  0.36156407    -0.54200
C1004       C  0.11572445  0.26167852  0.34728812     0.09900
H1005       H  0.08926534  0.24873000  0.38498285     0.14400
H1006       H  0.11452789  0.23500686  0.33890611     0.00200
H1007       H  0.13738248  0.24626801  0.38703428     0.14800
H1008       H  0.11671752  0.28469431  0.36143549     0.14500
C1009       C  0.21705956  0.14813238  0.36601643     0.86300
C1010       C  0.22907297  0.14722201  0.38085372    -0.53900
C1011       C  0.23884924  0.13320046  0.38125167     0.09300
C1012       C  0.23528844  0.12090034  0.36661267     0.20200
C1013       C  0.22801458  0.14536682  0.35043717    -0.54600
C1014       C  0.23780287  0.13141824  0.35066725     0.09400
C1015       C  0.20695892  0.13173388  0.36688406    -0.54200
C1016       C  0.21637218  0.11747808  0.36747594     0.09900
H1017       H  0.22987452  0.15706771  0.39024029     0.14400
H1018       H  0.24277675  0.10928328  0.36668723     0.00200
H1019       H  0.22772566  0.15323273  0.33961530     0.14800
H1020       H  0.19345504  0.13139834  0.36715024     0.14500
O1021       O  0.36516970  0.86382264  0.50665030    -0.73100
O1022       O  0.32920061  0.86588601  0.47137668    -0.74100
O1023       O  0.33008514  0.86691469  0.50721738    -0.62700
O1024       O  0.36474756  0.86366547  0.47146409    -0.71100
O1025       O  0.36220995  0.83604738  0.47077196    -0.70700
O1026       O  0.32838160  0.83915542  0.50827538    -0.61900
O1027       O  0.32653332  0.83840706  0.47294629    -0.74400
O1028       O  0.36339627  0.83603015  0.50626852    -0.73200
Cu1029     Cu  0.34731765  0.86603780  0.48909850     1.04600
Cu1030     Cu  0.34502409  0.83645015  0.48949611     1.04300
C1031       C  0.36990479  0.84949454  0.51194583     0.93100
C1032       C  0.32191439  0.85233122  0.46675253     0.92200
C1033       C  0.32417015  0.85362457  0.51378851     0.84400
C1034       C  0.36933223  0.84948667  0.46567837     0.90700
O1035       O  0.13552698  0.37879200  0.48373453    -0.73100
O1036       O  0.13879171  0.34241353  0.51820950    -0.74100
O1037       O  0.13485478  0.34330942  0.48267592    -0.62700
O1038       O  0.13940461  0.37807767  0.51887726    -0.71100
O1039       O  0.11197223  0.37783080  0.52197777    -0.70700
O1040       O  0.10736630  0.34396338  0.48554179    -0.61900
O1041       O  0.11129558  0.34254048  0.52062852    -0.74400
O1042       O  0.10812494  0.37935189  0.48699708    -0.73200
Cu1043     Cu  0.13814446  0.36057460  0.50078117     1.04600
Cu1044     Cu  0.10876774  0.36088806  0.50390655     1.04300
C1045       C  0.12130992  0.38484525  0.47998288     0.93100
C1046       C  0.12548275  0.33691068  0.52502045     0.92200
C1047       C  0.12034182  0.33846005  0.47821050     0.84400
C1048       C  0.12626251  0.38360976  0.52594495     0.90700
O1049       O  0.33466451  0.13740449  0.47399325    -0.73100
O1050       O  0.37176931  0.13939049  0.50723046    -0.74100
O1051       O  0.36979809  0.13778532  0.47171415    -0.62700
O1052       O  0.33697473  0.13841254  0.50964398    -0.71100
O1053       O  0.33655272  0.11070517  0.50959229    -0.70700
O1054       O  0.37133980  0.11016310  0.47328794    -0.61900
O1055       O  0.37197624  0.11159775  0.50887167    -0.74400
O1056       O  0.33567299  0.10957823  0.47378084    -0.73200
Cu1057     Cu  0.35325581  0.13917150  0.49056118     1.04600
Cu1058     Cu  0.35387006  0.10950309  0.49136549     1.04300
C1059       C  0.32946699  0.12331159  0.46845919     0.93100
C1060       C  0.37742743  0.12594281  0.51361200     0.92200
C1061       C  0.37615225  0.12394312  0.46676907     0.84400
C1062       C  0.33172093  0.12464007  0.51585156     0.90700
O1063       O  0.84785480  0.38405181  0.47751283    -0.73100
O1064       O  0.85276402  0.35018054  0.51380561    -0.74100
O1065       O  0.85006916  0.34888752  0.47864139    -0.62700
O1066       O  0.85020719  0.38554212  0.51349083    -0.71100
O1067       O  0.82276457  0.38349121  0.51507493    -0.70700
O1068       O  0.82269228  0.34774711  0.48001119    -0.61900
O1069       O  0.82542515  0.34829865  0.51601488    -0.74400
O1070       O  0.82045002  0.38283002  0.47972136    -0.73200
Cu1071     Cu  0.85116780  0.36727838  0.49580156     1.04600
Cu1072     Cu  0.82188973  0.36549593  0.49778927     1.04300
C1073       C  0.83345610  0.38852219  0.47251344     0.93100
C1074       C  0.83996179  0.34404078  0.52093621     0.92200
C1075       C  0.83628275  0.34285479  0.47339040     0.84400
C1076       C  0.83641048  0.38992943  0.52015494     0.90700
C1077       C  0.10983467  0.36103806  0.23503128     0.86300
C1078       C  0.12566388  0.36041554  0.22413325    -0.53900
C1079       C  0.14051499  0.35912244  0.23265845     0.09300
C1080       C  0.13778053  0.35931458  0.25186633     0.20200
C1081       C  0.11114644  0.34582710  0.24669659    -0.54600
C1082       C  0.12584297  0.34458218  0.25536342     0.09400
C1083       C  0.11330667  0.37634365  0.24615654    -0.54200
C1084       C  0.12738354  0.37536654  0.25547608     0.09900
H1085       H  0.12506601  0.36134880  0.21062032     0.14400
H1086       H  0.14929388  0.35816039  0.25899179     0.00200
H1087       H  0.10114567  0.33673991  0.24795218     0.14800
H1088       H  0.10565538  0.38748845  0.24649699     0.14500
C1089       C  0.23227111  0.36684577  0.11509103     0.86300
C1090       C  0.22114035  0.36713404  0.13077414    -0.53900
C1091       C  0.22958174  0.36705524  0.14555876     0.09300
C1092       C  0.24865210  0.36799415  0.14348325     0.20200
C1093       C  0.24304675  0.38266448  0.11756916    -0.54600
C1094       C  0.25168980  0.38349846  0.13228233     0.09400
C1095       C  0.24416013  0.35213727  0.11772624    -0.54200
C1096       C  0.25307829  0.35270538  0.13231603     0.09900
H1097       H  0.20765333  0.36737065  0.13040640     0.14400
H1098       H  0.25534798  0.36865368  0.15556362     0.00200
H1099       H  0.24351435  0.39273012  0.10856529     0.14800
H1100       H  0.24569998  0.34222198  0.10850545     0.14500
O1101       O  0.33402564  0.52367564  0.16475575    -0.73100
O1102       O  0.36869976  0.48695990  0.16615809    -0.74100
O1103       O  0.36929648  0.52232177  0.16886171    -0.62700
O1104       O  0.33372334  0.48757992  0.16232304    -0.71100
O1105       O  0.33630456  0.48964545  0.13486365    -0.70700
O1106       O  0.37208965  0.52454637  0.14160460    -0.61900
O1107       O  0.37127565  0.48866210  0.13870121    -0.74400
O1108       O  0.33713237  0.52535018  0.13728477    -0.73200
Cu1109     Cu  0.35126887  0.50509958  0.16646780     1.04600
Cu1110     Cu  0.35430480  0.50712599  0.13717512     1.04300
C1111       C  0.33029042  0.53045788  0.15076646     0.93100
C1112       C  0.37538112  0.48190658  0.15254733     0.92200
C1113       C  0.37646621  0.52901472  0.15634243     0.84400
C1114       C  0.32965906  0.48275243  0.14762546     0.90700
O1115       O  0.82327090  0.51466508  0.33873771    -0.73100
O1116       O  0.81781976  0.47700471  0.37126146    -0.74100
O1117       O  0.81696309  0.51255221  0.37395229    -0.62700
O1118       O  0.82428001  0.47884674  0.33651675    -0.71100
O1119       O  0.85127097  0.48055084  0.34066580    -0.70700
O1120       O  0.84407403  0.51253962  0.37894536    -0.61900
O1121       O  0.84511047  0.47712097  0.37550989    -0.74400
O1122       O  0.85034651  0.51583008  0.34423603    -0.73200
Cu1123     Cu  0.81962214  0.49578818  0.35490187     1.04600
Cu1124     Cu  0.84861837  0.49652276  0.35999712     1.04300
C1125       C  0.83760534  0.52122247  0.33645697     0.93100
C1126       C  0.83067019  0.47110962  0.37848947     0.92200
C1127       C  0.82944061  0.51761164  0.38258588     0.84400
C1128       C  0.83901716  0.47426145  0.33262677     0.90700
O1129       O  0.33296393  0.49879634  0.84417234    -0.73100
O1130       O  0.36870924  0.53336230  0.85053487    -0.74100
O1131       O  0.36762735  0.49762978  0.84810036    -0.62700
O1132       O  0.33378192  0.53500338  0.84654691    -0.71100
O1133       O  0.32998877  0.53287133  0.87381848    -0.70700
O1134       O  0.36498676  0.49650729  0.87566006    -0.61900
O1135       O  0.36486445  0.53274484  0.87786929    -0.74400
O1136       O  0.32989028  0.49711754  0.87157835    -0.73200
Cu1137     Cu  0.35085125  0.51627704  0.84640561     1.04600
Cu1138     Cu  0.34733997  0.51474762  0.87569018     1.04300
C1139       C  0.32617138  0.49199366  0.85688532     0.93100
C1140       C  0.37212090  0.53897767  0.86511718     0.92200
C1141       C  0.37142028  0.49096558  0.86208259     0.84400
C1142       C  0.32671562  0.54008747  0.85996974     0.90700
O1143       O  0.13532107  0.51115191  0.38405978    -0.73100
O1144       O  0.14143084  0.47679822  0.34739917    -0.74100
O1145       O  0.13967265  0.51256850  0.34911730    -0.62700
O1146       O  0.13678947  0.47563183  0.38304177    -0.71100
O1147       O  0.10934030  0.47515840  0.38024915    -0.70700
O1148       O  0.11284167  0.51024641  0.34460991    -0.61900
O1149       O  0.11421580  0.47446839  0.34505352    -0.74400
O1150       O  0.10805513  0.51070944  0.37985439    -0.73200
Cu1151     Cu  0.13925549  0.49401634  0.36599908     1.04600
Cu1152     Cu  0.11018337  0.49257944  0.36227569     1.04300
C1153       C  0.12077303  0.51650840  0.38758308     0.93100
C1154       C  0.12876931  0.47002819  0.34039703     0.92200
C1155       C  0.12665401  0.51750890  0.34149193     0.84400
C1156       C  0.12254524  0.46994743  0.38738134     0.90700
C1157       C  0.36194428  0.14332650  0.26561120     0.86300
C1158       C  0.35984116  0.12784730  0.25425271    -0.53900
C1159       C  0.34511663  0.12672123  0.24570869     0.09300
C1160       C  0.33359187  0.14187439  0.24935437     0.20200
C1161       C  0.35892645  0.15826952  0.25423053    -0.54600
C1162       C  0.34440911  0.15762005  0.24549844     0.09400
C1163       C  0.34637941  0.14211476  0.27694054    -0.54200
C1164       C  0.33146045  0.14161922  0.26859412     0.09900
H1165       H  0.36908224  0.11802025  0.25352391     0.14400
H1166       H  0.32145093  0.14169177  0.24288855     0.00200
H1167       H  0.36808390  0.16814901  0.25242784     0.14800
H1168       H  0.34707078  0.14092405  0.29042978     0.14500
C1169       C  0.37387747  0.26417545  0.13895866     0.86300
C1170       C  0.37138473  0.25323202  0.15468885    -0.53900
C1171       C  0.35682460  0.24405539  0.15483551     0.09300
C1172       C  0.34578389  0.24739003  0.13931060     0.20200
C1173       C  0.37169185  0.25212652  0.12425557    -0.54600
C1174       C  0.35702126  0.24344872  0.12405962     0.09400
C1175       C  0.35823602  0.27507697  0.13927494    -0.54200
C1176       C  0.34355840  0.26661156  0.13939133     0.09900
H1177       H  0.38007367  0.25306406  0.16505885     0.14400
H1178       H  0.33387986  0.24038595  0.13913163     0.00200
H1179       H  0.38116855  0.25056433  0.11470661     0.14800
H1180       H  0.35866442  0.28864038  0.14038276     0.14500
O1181       O  0.49257467  0.35168158  0.84427555    -0.73100
O1182       O  0.45797067  0.38807445  0.84636829    -0.74100
O1183       O  0.49377369  0.38682056  0.84451655    -0.62700
O1184       O  0.45726523  0.35207686  0.84669223    -0.71100
O1185       O  0.45821297  0.35291119  0.87424732    -0.70700
O1186       O  0.49456036  0.38716535  0.87208631    -0.61900
O1187       O  0.45927669  0.38850041  0.87401912    -0.74400
O1188       O  0.49389705  0.35156776  0.87198608    -0.73200
Cu1189     Cu  0.47523469  0.36968778  0.84451302     1.04600
Cu1190     Cu  0.47649933  0.37002415  0.87403481     1.04300
C1191       C  0.49899705  0.34621304  0.85776372     0.93100
C1192       C  0.45321212  0.39416800  0.86038965     0.92200
C1193       C  0.50045445  0.39199376  0.85810598     0.84400
C1194       C  0.45194906  0.34690943  0.86083556     0.90700
O1195       O  0.47216773  0.14886391  0.37791021    -0.73100
O1196       O  0.50550842  0.15791103  0.34143369    -0.74100
O1197       O  0.47075995  0.15253937  0.34301306    -0.62700
O1198       O  0.50746247  0.15416692  0.37724529    -0.71100
O1199       O  0.51151405  0.12700275  0.37396501    -0.70700
O1200       O  0.47467948  0.12522506  0.33963970    -0.61900
O1201       O  0.50963717  0.13065949  0.33867939    -0.74400
O1202       O  0.47600454  0.12149617  0.37479541    -0.73200
Cu1203     Cu  0.48893674  0.15431282  0.36006466     1.04600
Cu1204     Cu  0.49316347  0.12515454  0.35671837     1.04300
C1205       C  0.46828211  0.13376749  0.38156085     0.93100
C1206       C  0.51252516  0.14565830  0.33391280     0.92200
C1207       C  0.46680000  0.13863747  0.33606392     0.84400
C1208       C  0.51540914  0.14085504  0.38109108     0.90700
O1209       O  0.50790426  0.38936455  0.15896609    -0.73100
O1210       O  0.47439891  0.35212622  0.15799335    -0.74100
O1211       O  0.50917140  0.35417526  0.15542923    -0.62700
O1212       O  0.47242277  0.38740762  0.16226470    -0.71100
O1213       O  0.46987967  0.39026287  0.13482897    -0.70700
O1214       O  0.50693878  0.35719955  0.12792105    -0.61900
O1215       O  0.47183728  0.35541326  0.13063478    -0.74400
O1216       O  0.50468147  0.39260193  0.13179213    -0.73200
Cu1217     Cu  0.49106743  0.37072322  0.15964368     1.04600
Cu1218     Cu  0.48829495  0.37397598  0.13034713     1.04300
C1219       C  0.51168116  0.39691780  0.14543880     0.93100
C1220       C  0.46783331  0.34787754  0.14405208     0.92200
C1221       C  0.51370740  0.35035259  0.14063950     0.84400
C1222       C  0.46510591  0.39383438  0.14965044     0.90700
O1223       O  0.47351662  0.84828026  0.34489208    -0.73100
O1224       O  0.50916842  0.83989065  0.37909135    -0.74100
O1225       O  0.47361438  0.84164021  0.37959468    -0.62700
O1226       O  0.50879686  0.84645799  0.34400031    -0.71100
O1227       O  0.51109835  0.87349580  0.34988688    -0.70700
O1228       O  0.47451185  0.86906878  0.38423897    -0.61900
O1229       O  0.50986518  0.86709186  0.38485513    -0.74400
O1230       O  0.47572297  0.87564642  0.34938094    -0.73200
Cu1231     Cu  0.49125923  0.84311273  0.36172973     1.04600
Cu1232     Cu  0.49288317  0.87226466  0.36728098     1.04300
C1233       C  0.46896772  0.86327914  0.34175502     0.93100
C1234       C  0.51506790  0.85222393  0.38749613     0.92200
C1235       C  0.46820079  0.85464628  0.38722198     0.84400
C1236       C  0.51557196  0.86071204  0.34129351     0.90700
C1237       C  0.85082724  0.73103293  0.34688459     0.86300
C1238       C  0.83695072  0.74430010  0.34743639    -0.53900
C1239       C  0.83657060  0.75381299  0.36161901     0.09300
C1240       C  0.85064175  0.74964167  0.37401515     0.20200
C1241       C  0.86649661  0.74209371  0.34917147    -0.54600
C1242       C  0.86668916  0.75182415  0.36345270     0.09400
C1243       C  0.84939171  0.72116063  0.36310564    -0.54200
C1244       C  0.84899475  0.73061837  0.37730729     0.09900
H1245       H  0.82902909  0.74717798  0.33686530     0.14400
H1246       H  0.85021593  0.75712045  0.38568087     0.00200
H1247       H  0.87619781  0.74291662  0.33977490     0.14800
H1248       H  0.84863542  0.70755556  0.36328505     0.14500
C1249       C  0.45539000  0.33426203  0.14338513     0.01200
C1250       C  0.44311686  0.33303413  0.15600488     0.04000
C1251       C  0.43108936  0.32027213  0.15519036    -0.12100
C1252       C  0.43103480  0.30898089  0.14167454     0.23300
C1253       C  0.44318959  0.31005864  0.12911177    -0.12600
C1254       C  0.45534359  0.32269519  0.12986854     0.04700
C1255       C  0.41724751  0.29692828  0.13985177     0.27100
C1256       C  0.41862985  0.28069084  0.14629824    -0.13300
C1257       C  0.40530134  0.26935144  0.14458424     0.05200
C1258       C  0.38998654  0.27465749  0.13752666    -0.09300
C1259       C  0.39017172  0.28995917  0.12833369     0.06000
C1260       C  0.40327038  0.30141543  0.13043773    -0.13600
Br1261     Br  0.44278818  0.29436540  0.11062385    -0.05700
Br1262     Br  0.44146270  0.34965937  0.17359814    -0.00100
Br1263     Br  0.40997933  0.24611573  0.14829846     0.00400
Br1264     Br  0.40219023  0.32341101  0.12039670    -0.04100
Br1265     Br  0.47166493  0.32382132  0.11213120     0.00500
Br1266     Br  0.41418537  0.31849035  0.17223805    -0.03300
Br1267     Br  0.43904426  0.27403701  0.15713922    -0.04200
Br1268     Br  0.37432697  0.29469724  0.11075882    -0.00200
C1269       C  0.35257448  0.23188653  0.16855864     0.01200
C1270       C  0.33630113  0.23055067  0.17539148     0.04000
C1271       C  0.33256310  0.21778835  0.18703095    -0.12100
C1272       C  0.34549184  0.20832419  0.19421783     0.23300
C1273       C  0.36191497  0.21098931  0.18875654    -0.12600
C1274       C  0.36494694  0.22092762  0.17469626     0.04700
C1275       C  0.34213879  0.19483067  0.20665858     0.27100
C1276       C  0.33670302  0.19872728  0.22298370    -0.13300
C1277       C  0.33549692  0.18596592  0.23508275     0.05200
C1278       C  0.34160982  0.16973089  0.23165008    -0.09300
C1279       C  0.34812111  0.16629149  0.21561196     0.06000
C1280       C  0.34663162  0.17816393  0.20278975    -0.13600
Br1281     Br  0.38045397  0.20085048  0.20032334    -0.05700
Br1282     Br  0.31900439  0.24624118  0.16994020    -0.00100
Br1283     Br  0.32678475  0.19125439  0.25676373     0.00400
Br1284     Br  0.35173642  0.17178567  0.18003103    -0.04100
Br1285     Br  0.38462654  0.21602707  0.16202476     0.00500
Br1286     Br  0.30969909  0.21276217  0.19248906    -0.03300
Br1287     Br  0.33250572  0.22173056  0.22934085    -0.04200
Br1288     Br  0.36202124  0.14695969  0.21174577    -0.00200
C1289       C  0.45272943  0.13822799  0.32408956     0.01200
C1290       C  0.45164799  0.15052531  0.31148676     0.04000
C1291       C  0.43726744  0.15166090  0.30153496    -0.12100
C1292       C  0.42420000  0.14003677  0.30355359     0.23300
C1293       C  0.42556736  0.12723983  0.31553653    -0.12600
C1294       C  0.43968803  0.12643123  0.32594576     0.04700
C1295       C  0.40876834  0.14168972  0.29346912     0.27100
C1296       C  0.39528521  0.15089322  0.29981287    -0.13300
C1297       C  0.38081633  0.15296424  0.29011936     0.05200
C1298       C  0.37899312  0.14442094  0.27459886    -0.09300
C1299       C  0.39377594  0.13789516  0.26720308     0.06000
C1300       C  0.40820491  0.13566523  0.27694731    -0.13600
Br1301     Br  0.40775808  0.11115020  0.31793293    -0.05700
Br1302     Br  0.47012958  0.16546965  0.30731512    -0.00100
Br1303     Br  0.36572102  0.17047582  0.29664849     0.00400
Br1304     Br  0.42744993  0.12461719  0.26761640    -0.04100
Br1305     Br  0.44042803  0.10984457  0.34344061     0.00500
Br1306     Br  0.43514080  0.16954170  0.28549850    -0.03300
Br1307     Br  0.39693344  0.16108638  0.32171733    -0.04200
Br1308     Br  0.39603383  0.13537274  0.24323786    -0.00200
C1309       C  0.38296621  0.47639538  0.86236709     0.01200
C1310       C  0.37923450  0.46181411  0.85293285     0.04000
C1311       C  0.39038632  0.44817513  0.85267414    -0.12100
C1312       C  0.40518459  0.44879572  0.86213215     0.23300
C1313       C  0.40878482  0.46320334  0.87178524    -0.12600
C1314       C  0.39779793  0.47697331  0.87180800     0.04700
C1315       C  0.41724612  0.43457152  0.86152225     0.27100
C1316       C  0.41496644  0.42033964  0.87167746    -0.13300
C1317       C  0.42659343  0.40707884  0.87126697     0.05200
C1318       C  0.44073906  0.40801501  0.86078326    -0.09300
C1319       C  0.44292133  0.42232832  0.85062511     0.06000
C1320       C  0.43117624  0.43542391  0.85088913    -0.13600
Br1321     Br  0.42899939  0.46410747  0.88479002    -0.05700
Br1322     Br  0.35849412  0.46015324  0.84083943    -0.00100
Br1323     Br  0.42260093  0.38731767  0.88452785     0.00400
Br1324     Br  0.43411621  0.45468652  0.83664125    -0.04100
Br1325     Br  0.40363136  0.49697025  0.88403670     0.00500
Br1326     Br  0.38559229  0.42867756  0.83911597    -0.03300
Br1327     Br  0.39580746  0.41909488  0.88613178    -0.04200
Br1328     Br  0.46248057  0.42467441  0.83695460    -0.00200
C1329       C  0.45078557  0.40527509  0.15201437     0.01200
C1330       C  0.43607933  0.40267294  0.14264202     0.04000
C1331       C  0.42312058  0.41447977  0.14333858    -0.12100
C1332       C  0.42455839  0.42868357  0.15375746     0.23300
C1333       C  0.43867901  0.43071539  0.16399211    -0.12600
C1334       C  0.45179792  0.41909210  0.16310243     0.04700
C1335       C  0.41170984  0.44201041  0.15326587     0.27100
C1336       C  0.41380633  0.45569548  0.14245174    -0.13300
C1337       C  0.40204577  0.46873019  0.14223033     0.05200
C1338       C  0.38788071  0.46810701  0.15277288    -0.09300
C1339       C  0.38569385  0.45406699  0.16338740     0.06000
C1340       C  0.39764801  0.44116423  0.16367631    -0.13600
Br1341     Br  0.44013288  0.44978914  0.17888604    -0.05700
Br1342     Br  0.43323561  0.38250442  0.12944614    -0.00100
Br1343     Br  0.40614859  0.48764304  0.12786740     0.00400
Br1344     Br  0.39486116  0.42214679  0.17825658    -0.04100
Br1345     Br  0.47136209  0.42280537  0.17651552     0.00500
Br1346     Br  0.40349432  0.41146783  0.12975209    -0.03300
Br1347     Br  0.43302356  0.45649817  0.12795421    -0.04200
Br1348     Br  0.36594811  0.45170441  0.17693582    -0.00200
C1349       C  0.26649032  0.34013144  0.13571780     0.01200
C1350       C  0.27896123  0.33724953  0.12350798     0.04000
C1351       C  0.29046389  0.32415089  0.12549342    -0.12100
C1352       C  0.28894274  0.31301239  0.13901407     0.23300
C1353       C  0.27676430  0.31595487  0.15130690    -0.12600
C1354       C  0.26659491  0.33026870  0.15039615     0.04700
C1355       C  0.30118891  0.29920941  0.14097454     0.27100
C1356       C  0.30115053  0.28545853  0.12980414    -0.13300
C1357       C  0.31467684  0.27424053  0.12950888     0.05200
C1358       C  0.32763018  0.27596469  0.14131923    -0.09300
C1359       C  0.32636175  0.28842295  0.15394727     0.06000
C1360       C  0.31375271  0.30053074  0.15319222    -0.13600
Br1361     Br  0.27382962  0.30013565  0.16928766    -0.05700
Br1362     Br  0.28165435  0.35224609  0.10481395    -0.00100
Br1363     Br  0.31596261  0.25764821  0.11197678     0.00400
Br1364     Br  0.31455787  0.31967844  0.16809569    -0.04100
Br1365     Br  0.25484186  0.33691936  0.17025916     0.00500
Br1366     Br  0.30871131  0.32174978  0.10993082    -0.03300
Br1367     Br  0.28285318  0.28252640  0.11442885    -0.04200
Br1368     Br  0.34176206  0.28894960  0.17255574    -0.00200
C1369       C  0.31759359  0.46870888  0.14547466     0.01200
C1370       C  0.32039074  0.45610194  0.13326662     0.04000
C1371       C  0.30898107  0.44279027  0.13132902    -0.12100
C1372       C  0.29564702  0.44095399  0.14262455     0.23300
C1373       C  0.29329334  0.45302962  0.15531879    -0.12600
C1374       C  0.30366401  0.46727703  0.15619089     0.04700
C1375       C  0.28408491  0.42636940  0.14108229     0.27100
C1376       C  0.26779124  0.42868209  0.13510975    -0.13300
C1377       C  0.25684603  0.41492807  0.13357998     0.05200
C1378       C  0.26255749  0.39833008  0.13658754    -0.09300
C1379       C  0.27905330  0.39616241  0.14257128     0.06000
C1380       C  0.28946443  0.41016929  0.14536067    -0.13600
Br1381     Br  0.27606952  0.44979325  0.17181998    -0.05700
Br1382     Br  0.34049946  0.45595810  0.12002532    -0.00100
Br1383     Br  0.23383730  0.41952893  0.12812260     0.00400
Br1384     Br  0.31137808  0.40723305  0.15490378    -0.04100
Br1385     Br  0.29796138  0.48520031  0.17144853     0.00500
Br1386     Br  0.31157093  0.42703876  0.11309185    -0.03300
Br1387     Br  0.26063723  0.45079401  0.12845157    -0.04200
Br1388     Br  0.28851770  0.37428328  0.14587208    -0.00200
C1389       C  0.22068762  0.36489315  0.16172891     0.01200
C1390       C  0.21687651  0.37889539  0.17181122     0.04000
C1391       C  0.20529435  0.37738742  0.18495552    -0.12100
C1392       C  0.19912264  0.36143482  0.18947259     0.23300
C1393       C  0.20489247  0.34711510  0.18082615    -0.12600
C1394       C  0.21439593  0.34897039  0.16619538     0.04700
C1395       C  0.18504103  0.35980284  0.20155120     0.27100
C1396       C  0.18675183  0.36400159  0.21861406    -0.13300
C1397       C  0.17255575  0.36444310  0.22917696     0.05200
C1398       C  0.15704091  0.35769751  0.22341140    -0.09300
C1399       C  0.15706249  0.35013512  0.20734523     0.06000
C1400       C  0.16972623  0.35347322  0.19589390    -0.13600
Br1401     Br  0.19918385  0.32493706  0.18864770    -0.05700
Br1402     Br  0.22687126  0.40029687  0.16723303    -0.00100
Br1403     Br  0.17554367  0.37481591  0.25077423     0.00400
Br1404     Br  0.16555428  0.34953436  0.17237306    -0.04100
Br1405     Br  0.21763977  0.32973031  0.15182062     0.00500
Br1406     Br  0.19680936  0.39738445  0.19560392    -0.03300
Br1407     Br  0.20865693  0.36874724  0.22744422    -0.04200
Br1408     Br  0.14275064  0.33160927  0.20204862    -0.00200
C1409       C  0.13072754  0.38844230  0.26843748     0.01200
C1410       C  0.13908379  0.40339994  0.26411807     0.04000
C1411       C  0.14022562  0.41677014  0.27571014    -0.12100
C1412       C  0.13283545  0.41539495  0.29163546     0.23300
C1413       C  0.12422212  0.40059594  0.29585159    -0.12600
C1414       C  0.12255539  0.38750128  0.28407283     0.04700
C1415       C  0.13256001  0.43007277  0.30332215     0.27100
C1416       C  0.14577293  0.43299146  0.31450158    -0.13300
C1417       C  0.14496780  0.44626555  0.32626648     0.05200
C1418       C  0.13075800  0.45689418  0.32693872    -0.09300
C1419       C  0.11808175  0.45452812  0.31472191     0.06000
C1420       C  0.11886175  0.44101113  0.30330715    -0.13600
Br1421     Br  0.11406500  0.39863827  0.31761452    -0.05700
Br1422     Br  0.14687759  0.40651637  0.24154412    -0.00100
Br1423     Br  0.16359337  0.44923116  0.34127317     0.00400
Br1424     Br  0.10102743  0.43729258  0.28748907    -0.04100
Br1425     Br  0.10716276  0.36941051  0.28862558     0.00500
Br1426     Br  0.15105922  0.43742119  0.26949924    -0.03300
Br1427     Br  0.16492524  0.41844899  0.31368419    -0.04200
Br1428     Br  0.10005112  0.47035501  0.31231472    -0.00200
C1429       C  0.83186928  0.39996308  0.45797903     0.01200
C1430       C  0.84322006  0.41340994  0.45580412     0.04000
C1431       C  0.84178855  0.42404792  0.44194399    -0.12100
C1432       C  0.82918789  0.42132011  0.43005866     0.23300
C1433       C  0.81805086  0.40784270  0.43186399    -0.12600
C1434       C  0.81937307  0.39711777  0.44573119     0.04700
C1435       C  0.82774201  0.43291260  0.41577224     0.27100
C1436       C  0.81809672  0.44752475  0.41739393    -0.13300
C1437       C  0.81851471  0.45976403  0.40482805     0.05200
C1438       C  0.82882524  0.45749573  0.39072865    -0.09300
C1439       C  0.83795123  0.44252622  0.38882148     0.06000
C1440       C  0.83730979  0.43019277  0.40129184    -0.13600
Br1441     Br  0.80115385  0.40408288  0.41508859    -0.05700
Br1442     Br  0.86071070  0.41788541  0.47171305    -0.00100
Br1443     Br  0.80583799  0.48011717  0.40762360     0.00400
Br1444     Br  0.84992575  0.40976949  0.39890796    -0.04100
Br1445     Br  0.80468201  0.37792232  0.44695623     0.00500
Br1446     Br  0.85708034  0.44259815  0.43912445    -0.03300
Br1447     Br  0.80502188  0.45107780  0.43731652    -0.04200
Br1448     Br  0.85117005  0.43875713  0.36906677    -0.00200
C1449       C  0.38938257  0.12403288  0.45365747     0.01200
C1450       C  0.39030347  0.11116668  0.44134369     0.04000
C1451       C  0.40277845  0.11166276  0.42893515    -0.12100
C1452       C  0.41431078  0.12496270  0.42860183     0.23300
C1453       C  0.41355685  0.13766690  0.44082118    -0.12600
C1454       C  0.40138044  0.13711766  0.45343622     0.04700
C1455       C  0.42755902  0.12563531  0.41565142     0.27100
C1456       C  0.44305501  0.11802835  0.41863925    -0.13300
C1457       C  0.45633414  0.12045735  0.40742030     0.05200
C1458       C  0.45422081  0.13056459  0.39314628    -0.09300
C1459       C  0.43842531  0.13758534  0.38981921     0.06000
C1460       C  0.42515061  0.13507760  0.40102932    -0.13600
Br1461     Br  0.42948454  0.15585967  0.44024128    -0.05700
Br1462     Br  0.37441849  0.09293936  0.44082092    -0.00100
Br1463     Br  0.47762409  0.11072377  0.41229477     0.00400
Br1464     Br  0.40362116  0.14471877  0.39656794    -0.04100
Br1465     Br  0.40230021  0.15382936  0.47101662     0.00500
Br1466     Br  0.40419157  0.09417946  0.41222363    -0.03300
Br1467     Br  0.44612073  0.10463883  0.43842915    -0.04200
Br1468     Br  0.43467683  0.15028275  0.36967271    -0.00200
C1469       C  0.12133302  0.45745728  0.40096499     0.01200
C1470       C  0.11077082  0.46036906  0.41481006     0.04000
C1471       C  0.11027472  0.44884005  0.42807900    -0.12100
C1472       C  0.12020832  0.43434446  0.42754438     0.23300
C1473       C  0.13043091  0.43121166  0.41360399    -0.12600
C1474       C  0.13097949  0.44271087  0.40034114     0.04700
C1475       C  0.11976474  0.42220686  0.44152273     0.27100
C1476       C  0.13032098  0.42442888  0.45541824    -0.13300
C1477       C  0.13046899  0.41246356  0.46829015     0.05200
C1478       C  0.12013941  0.39813286  0.46721665    -0.09300
C1479       C  0.10908521  0.39629633  0.45357775     0.06000
C1480       C  0.10900261  0.40826959  0.44072725    -0.13600
Br1481     Br  0.14357318  0.41100546  0.41270164    -0.05700
Br1482     Br  0.09734383  0.48037630  0.41605190    -0.00100
Br1483     Br  0.14421883  0.41621986  0.48777106     0.00400
Br1484     Br  0.09442565  0.40546487  0.42173033    -0.04100
Br1485     Br  0.14423967  0.43766736  0.38091311     0.00500
Br1486     Br  0.09604999  0.45281451  0.44710957    -0.03300
Br1487     Br  0.14469909  0.44382403  0.45662804    -0.04200
Br1488     Br  0.09444536  0.37709709  0.45195466    -0.00200
C1489       C  0.45420349  0.85304893  0.39925067     0.01200
C1490       C  0.43910504  0.84545472  0.39415435     0.04000
C1491       C  0.42564488  0.84427106  0.40537292    -0.12100
C1492       C  0.42698230  0.85096518  0.42165505     0.23300
C1493       C  0.44204074  0.85852156  0.42680292    -0.12600
C1494       C  0.45565705  0.85943280  0.41569460     0.04700
C1495       C  0.41228511  0.85049887  0.43304756     0.27100
C1496       C  0.39975063  0.86268931  0.43155945    -0.13300
C1497       C  0.38524594  0.86169547  0.44140644     0.05200
C1498       C  0.38348638  0.84894083  0.45357551    -0.09300
C1499       C  0.39625773  0.83681653  0.45516551     0.06000
C1500       C  0.41044690  0.83750724  0.44477679    -0.13600
Br1501     Br  0.44386438  0.86780395  0.44903768    -0.05700
Br1502     Br  0.43634307  0.83760331  0.37144350    -0.00100
Br1503     Br  0.36749599  0.87746493  0.43737158     0.00400
Br1504     Br  0.42765342  0.82080570  0.44671827    -0.04100
Br1505     Br  0.47650717  0.86885984  0.42324386     0.00500
Br1506     Br  0.40514945  0.83364378  0.39842704    -0.03300
Br1507     Br  0.40272694  0.88101018  0.41613836    -0.04200
Br1508     Br  0.39512959  0.81973636  0.47216595    -0.00200
C1509       C  0.31510601  0.13965912  0.27766400     0.01200
C1510       C  0.31026883  0.15156222  0.28995948     0.04000
C1511       C  0.29586715  0.14902951  0.29963867    -0.12100
C1512       C  0.28685895  0.13396667  0.29826016     0.23300
C1513       C  0.29126007  0.12216533  0.28599373    -0.12600
C1514       C  0.30477742  0.12533669  0.27521008     0.04700
C1515       C  0.27384114  0.13006171  0.31085128     0.27100
C1516       C  0.27870945  0.12535359  0.32703035    -0.13300
C1517       C  0.26692142  0.12454446  0.34000697     0.05200
C1518       C  0.24988507  0.12790494  0.33671666    -0.09300
C1519       C  0.24487486  0.13026383  0.31983168     0.06000
C1520       C  0.25686945  0.13195391  0.30710987    -0.13600
Br1521     Br  0.27922343  0.10116257  0.28473304    -0.05700
Br1522     Br  0.32311850  0.17145235  0.29415329    -0.00100
Br1523     Br  0.27515967  0.11985996  0.36206280     0.00400
Br1524     Br  0.25018765  0.13771677  0.28468626    -0.04100
Br1525     Br  0.30859456  0.10945587  0.25761257     0.00500
Br1526     Br  0.28855040  0.16599853  0.31532999    -0.03300
Br1527     Br  0.30194575  0.12081950  0.33143487    -0.04200
Br1528     Br  0.22158578  0.13069516  0.31370047    -0.00200
C1529       C  0.25241988  0.13112830  0.39396225     0.01200
C1530       C  0.25472695  0.11579342  0.40257161     0.04000
C1531       C  0.26769872  0.11415406  0.41430202    -0.12100
C1532       C  0.27782225  0.12800498  0.41839033     0.23300
C1533       C  0.27556466  0.14330182  0.40999853    -0.12600
C1534       C  0.26355655  0.14461693  0.39726585     0.04700
C1535       C  0.29109581  0.12632519  0.43125306     0.27100
C1536       C  0.28689315  0.12543864  0.44835757    -0.13300
C1537       C  0.29943287  0.12328523  0.46045487     0.05200
C1538       C  0.31627323  0.12317258  0.45563650    -0.09300
C1539       C  0.32050719  0.12449846  0.43860780     0.06000
C1540       C  0.30794247  0.12546114  0.42639237    -0.13600
Br1541     Br  0.28895323  0.16256131  0.41604500    -0.05700
Br1542     Br  0.24031435  0.09678315  0.39900753    -0.00100
Br1543     Br  0.29361382  0.12053968  0.48365669     0.00400
Br1544     Br  0.31379655  0.12555099  0.40298451    -0.04100
Br1545     Br  0.26406040  0.16429692  0.38319333     0.00500
Br1546     Br  0.27189942  0.09275053  0.42471313    -0.03300
Br1547     Br  0.26400730  0.12777440  0.45523772    -0.04200
Br1548     Br  0.34354668  0.12562829  0.43206779    -0.00200
C1549       C  0.14275436  0.22627858  0.35943634     0.01200
C1550       C  0.13938870  0.20930705  0.35519086     0.04000
C1551       C  0.15239530  0.19746482  0.35491336    -0.12100
C1552       C  0.16861848  0.20222648  0.35960722     0.23300
C1553       C  0.17219674  0.21918827  0.36287798    -0.12600
C1554       C  0.15954988  0.23121881  0.36173068     0.04700
C1555       C  0.18169384  0.18931216  0.36189814     0.27100
C1556       C  0.18142752  0.17908955  0.37617005    -0.13300
C1557       C  0.19341769  0.16639751  0.37815902     0.05200
C1558       C  0.20624283  0.16418993  0.36610362    -0.09300
C1559       C  0.20831876  0.17717233  0.35413965     0.06000
C1560       C  0.19518307  0.18822937  0.35079357    -0.13600
Br1561     Br  0.19429624  0.22595001  0.36975607    -0.05700
Br1562     Br  0.11731695  0.20157217  0.34994240    -0.00100
Br1563     Br  0.19277873  0.15345810  0.39837833     0.00400
Br1564     Br  0.19594589  0.20207751  0.33108310    -0.04100
Br1565     Br  0.16592468  0.25446163  0.36103361     0.00500
Br1566     Br  0.14808330  0.17445876  0.34852724    -0.03300
Br1567     Br  0.16465989  0.18276593  0.39311666    -0.04200
Br1568     Br  0.23018818  0.18461791  0.34726206    -0.00200
C1569       C  0.11687886  0.26985848  0.33056611     0.01200
C1570       C  0.13034202  0.26651381  0.31964223     0.04000
C1571       C  0.13371340  0.27739475  0.30623536    -0.12100
C1572       C  0.12304109  0.29092249  0.30298052     0.23300
C1573       C  0.10858239  0.29312676  0.31259552    -0.12600
C1574       C  0.10560723  0.28283790  0.32647546     0.04700
C1575       C  0.12724713  0.30350416  0.29007768     0.27100
C1576       C  0.13444974  0.31886279  0.29489724    -0.13300
C1577       C  0.13564211  0.33215018  0.28338190     0.05200
C1578       C  0.12937488  0.33003225  0.26682769    -0.09300
C1579       C  0.12494420  0.31359035  0.26159043     0.06000
C1580       C  0.12320403  0.30060371  0.27327005    -0.13600
Br1581     Br  0.09316841  0.31078287  0.30698028    -0.05700
Br1582     Br  0.14459962  0.24748105  0.32275673    -0.00100
Br1583     Br  0.14626006  0.35245905  0.29115368     0.00400
Br1584     Br  0.11464898  0.27897729  0.26644030    -0.04100
Br1585     Br  0.08589241  0.28673096  0.33969142     0.00500
Br1586     Br  0.15347469  0.27445448  0.29283881    -0.03300
Br1587     Br  0.14214292  0.32163719  0.31767047    -0.04200
Br1588     Br  0.12293951  0.30811536  0.23824849    -0.00200
C1589       C  0.11372914  0.27289362  0.39321368     0.01200
C1590       C  0.12850744  0.27736900  0.40193106     0.04000
C1591       C  0.12776202  0.28569291  0.41734890    -0.12100
C1592       C  0.11286082  0.29305533  0.42259767     0.23300
C1593       C  0.09844184  0.29117610  0.41284635    -0.12600
C1594       C  0.09875627  0.28120457  0.39820129     0.04700
C1595       C  0.11338076  0.30507368  0.43674788     0.27100
C1596       C  0.10846313  0.30007740  0.45285823    -0.13300
C1597       C  0.11087442  0.31097442  0.46653156     0.05200
C1598       C  0.11837738  0.32677636  0.46409238    -0.09300
C1599       C  0.12316560  0.33181971  0.44793716     0.06000
C1600       C  0.12037838  0.32110713  0.43424584    -0.13600
Br1601     Br  0.07851250  0.30302665  0.41935005    -0.05700
Br1602     Br  0.14970141  0.27827671  0.39095331    -0.00100
Br1603     Br  0.10475773  0.30392319  0.48874031     0.00400
Br1604     Br  0.12624141  0.32830659  0.41197778    -0.04100
Br1605     Br  0.07912571  0.28163885  0.38421634     0.00500
Br1606     Br  0.14765490  0.28823392  0.43078191    -0.03300
Br1607     Br  0.09872169  0.27821905  0.45613088    -0.04200
Br1608     Br  0.13341846  0.35345716  0.44445288    -0.00200
C1609       C  0.30800932  0.85254090  0.45424719     0.01200
C1610       C  0.29745753  0.86671777  0.45271846     0.04000
C1611       C  0.28487789  0.86701008  0.44041060    -0.12100
C1612       C  0.28171207  0.85273819  0.43048251     0.23300
C1613       C  0.29132890  0.83822204  0.43269676    -0.12600
C1614       C  0.30485205  0.83830133  0.44390267     0.04700
C1615       C  0.26909467  0.85330195  0.41685068     0.27100
C1616       C  0.25199818  0.85186681  0.42036033    -0.13300
C1617       C  0.24020394  0.85334416  0.40736943     0.05200
C1618       C  0.24545588  0.85496023  0.39051979    -0.09300
C1619       C  0.26272369  0.85404765  0.38705847     0.06000
C1620       C  0.27438970  0.85453631  0.40016458    -0.13600
Br1621     Br  0.28592776  0.81819591  0.42005596    -0.05700
Br1622     Br  0.29916454  0.88556698  0.46790179    -0.00100
Br1623     Br  0.21687370  0.85178725  0.41276553     0.00400
Br1624     Br  0.29781366  0.85729225  0.39530240    -0.04100
Br1625     Br  0.31944017  0.81904224  0.44368663     0.00500
Br1626     Br  0.27216017  0.88716757  0.43673485    -0.03300
Br1627     Br  0.24489054  0.84750641  0.44296312    -0.04200
Br1628     Br  0.27115622  0.85048929  0.36493901    -0.00200
C1629       C  0.20859420  0.10055077  0.36917545     0.01200
C1630       C  0.20981607  0.08852462  0.35619899     0.04000
C1631       C  0.19979746  0.07400266  0.35651779    -0.12100
C1632       C  0.18861727  0.07141767  0.36978256     0.23300
C1633       C  0.18868652  0.08238711  0.38356460    -0.12600
C1634       C  0.19867923  0.09687170  0.38331471     0.04700
C1635       C  0.17515036  0.05879191  0.36811799     0.27100
C1636       C  0.16031305  0.06337038  0.35997202    -0.13300
C1637       C  0.14728591  0.05172401  0.35828586     0.05200
C1638       C  0.14898181  0.03544338  0.36479452    -0.09300
C1639       C  0.16365764  0.03098322  0.37339305     0.06000
C1640       C  0.17681735  0.04261697  0.37488784    -0.13600
Br1641     Br  0.17436765  0.07788693  0.40239951    -0.05700
Br1642     Br  0.22430667  0.09208419  0.33743174    -0.00100
Br1643     Br  0.12676633  0.05837509  0.34774864     0.00400
Br1644     Br  0.19720381  0.03646947  0.38596209    -0.04100
Br1645     Br  0.19887824  0.11131469  0.40264765     0.00500
Br1646     Br  0.20056883  0.05797973  0.33838305    -0.03300
Br1647     Br  0.15785659  0.08574152  0.35116534    -0.04200
Br1648     Br  0.16592407  0.00888125  0.38279818    -0.00200
C1649       C  0.19882338  0.89028488  0.36330204     0.01200
C1650       C  0.19408019  0.89862849  0.37832333     0.04000
C1651       C  0.18562201  0.91405779  0.37771891    -0.12100
C1652       C  0.17933006  0.92001825  0.36248795     0.23300
C1653       C  0.18164755  0.91059660  0.34783032    -0.12600
C1654       C  0.19114490  0.89579986  0.34814159     0.04700
C1655       C  0.16820241  0.93484973  0.36214486     0.27100
C1656       C  0.15151599  0.93312792  0.36726900    -0.13300
C1657       C  0.14059273  0.94679987  0.36616825     0.05200
C1658       C  0.14611960  0.96213915  0.35934395    -0.09300
C1659       C  0.16270595  0.96370212  0.35373028     0.06000
C1660       C  0.17381663  0.95019132  0.35549165    -0.13600
Br1661     Br  0.17110741  0.91783928  0.32732075    -0.05700
Br1662     Br  0.19420981  0.88741238  0.39961363    -0.00100
Br1663     Br  0.11771536  0.94401310  0.37307058     0.00400
Br1664     Br  0.19671836  0.95251897  0.34863571    -0.04100
Br1665     Br  0.19156775  0.88273264  0.32771416     0.00500
Br1666     Br  0.18197222  0.92683379  0.39796065    -0.03300
Br1667     Br  0.14341547  0.91171855  0.37510104    -0.04200
Br1668     Br  0.17033479  0.98429377  0.34370325    -0.00200
C1669       C  0.83600727  0.33057202  0.45922860     0.01200
C1670       C  0.84886593  0.33068537  0.44700926     0.04000
C1671       C  0.84866702  0.31898149  0.43379996    -0.12100
C1672       C  0.83509709  0.30802574  0.43179010     0.23300
C1673       C  0.82188114  0.30836809  0.44324975    -0.12600
C1674       C  0.82256864  0.31907257  0.45727826     0.04700
C1675       C  0.83475805  0.29618716  0.41746389     0.27100
C1676       C  0.82888755  0.30150812  0.40183683    -0.13300
C1677       C  0.82961543  0.29067573  0.38789436     0.05200
C1678       C  0.83723233  0.27465544  0.38937728    -0.09300
C1679       C  0.84131006  0.26882840  0.40562675     0.06000
C1680       C  0.84038073  0.27967714  0.41949400    -0.13600
Br1681     Br  0.80268659  0.29422108  0.43939556    -0.05700
Br1682     Br  0.86629337  0.34749274  0.44699458    -0.00100
Br1683     Br  0.81930590  0.29833340  0.36758655     0.00400
Br1684     Br  0.84731566  0.27218152  0.44132396    -0.04100
Br1685     Br  0.80521691  0.31694469  0.47386623     0.00500
Br1686     Br  0.86696569  0.31792373  0.41815926    -0.03300
Br1687     Br  0.82032561  0.32403475  0.39961559    -0.04200
Br1688     Br  0.84677026  0.24553865  0.40944566    -0.00200
C1689       C  0.01311798  0.10164359  0.35038923     0.01200
C1690       C  0.02865360  0.10498044  0.35802539     0.04000
C1691       C  0.04122941  0.09269392  0.35799996    -0.12100
C1692       C  0.03829279  0.07685848  0.35066748     0.23300
C1693       C  0.02286987  0.07354306  0.34290923    -0.12600
C1694       C  0.01038336  0.08593514  0.34262725     0.04700
C1695       C  0.05127295  0.06354590  0.35151556     0.27100
C1696       C  0.06265308  0.06143563  0.33836492    -0.13300
C1697       C  0.07496797  0.04885491  0.33911616     0.05200
C1698       C  0.07608029  0.03807490  0.35327933    -0.09300
C1699       C  0.06432813  0.04035989  0.36648283     0.06000
C1700       C  0.05215036  0.05304219  0.36552725    -0.13600
Br1701     Br  0.01881227  0.05181129  0.33298935    -0.05700
Br1702     Br  0.03296870  0.12656580  0.36819888    -0.00100
Br1703     Br  0.09019926  0.04730696  0.32045453     0.00400
Br1704     Br  0.03634007  0.05618071  0.38348086    -0.04100
Br1705     Br  0.98924475  0.08098321  0.33235679     0.00500
Br1706     Br  0.06258295  0.09746651  0.36800432    -0.03300
Br1707     Br  0.06127436  0.07614892  0.31928663    -0.04200
Br1708     Br  0.06378884  0.02609997  0.38599155    -0.00200
C1709       C  0.01524071  0.17295528  0.35205123     0.01200
C1710       C  0.01507011  0.18718085  0.36266056     0.04000
C1711       C  0.02878753  0.19819805  0.36303757    -0.12100
C1712       C  0.04287393  0.19494201  0.35307812     0.23300
C1713       C  0.04298585  0.18095173  0.34227480    -0.12600
C1714       C  0.02917680  0.17005815  0.34162779     0.04700
C1715       C  0.05782242  0.20587172  0.35452775     0.27100
C1716       C  0.06115647  0.21814551  0.34237791    -0.13300
C1717       C  0.07521414  0.22863060  0.34397820     0.05200
C1718       C  0.08543019  0.22763027  0.35831544    -0.09300
C1719       C  0.08218422  0.21504477  0.37034204     0.06000
C1720       C  0.06864648  0.20401520  0.36822673    -0.13600
Br1721     Br  0.06236793  0.17648107  0.32873479    -0.05700
Br1722     Br  0.99588474  0.19203302  0.37636035    -0.00100
Br1723     Br  0.08004408  0.24440968  0.32652484     0.00400
Br1724     Br  0.06483470  0.18623270  0.38409348    -0.04100
Br1725     Br  0.03000780  0.15066459  0.32707495     0.00500
Br1726     Br  0.02839356  0.21784204  0.37723771    -0.03300
Br1727     Br  0.04603652  0.22093268  0.32384430    -0.04200
Br1728     Br  0.09667638  0.21219144  0.38942996    -0.00200
C1729       C  0.94252056  0.17692569  0.35474764     0.01200
C1730       C  0.94629309  0.19250591  0.34728226     0.04000
C1731       C  0.93457429  0.20563194  0.34761691    -0.12100
C1732       C  0.91912780  0.20337821  0.35564245     0.23300
C1733       C  0.91547329  0.18797673  0.36337474    -0.12600
C1734       C  0.92705215  0.17475591  0.36281439     0.04700
C1735       C  0.90612701  0.21660857  0.35479771     0.27100
C1736       C  0.90542070  0.22955096  0.36677968    -0.13300
C1737       C  0.89262496  0.24162919  0.36610194     0.05200
C1738       C  0.87906344  0.23938902  0.35485009    -0.09300
C1739       C  0.88163172  0.22817301  0.34118356     0.06000
C1740       C  0.89479679  0.21658969  0.34144379    -0.13600
Br1741     Br  0.89428231  0.18492994  0.37430281    -0.05700
Br1742     Br  0.96767468  0.19607540  0.33691110    -0.00100
Br1743     Br  0.89728160  0.26313902  0.37629845     0.00400
Br1744     Br  0.89728537  0.20039371  0.32357498    -0.04100
Br1745     Br  0.92111069  0.15330356  0.37203055     0.00500
Br1746     Br  0.93939817  0.22660071  0.33668582    -0.03300
Br1747     Br  0.92218775  0.23080714  0.38399691    -0.04200
Br1748     Br  0.86847589  0.22945584  0.32107385    -0.00200
C1749       C  0.94303152  0.82734246  0.35502730     0.01200
C1750       C  0.93946468  0.82091360  0.37128556     0.04000
C1751       C  0.92734232  0.80831493  0.37338853    -0.12100
C1752       C  0.91874431  0.80179468  0.35953862     0.23300
C1753       C  0.92201392  0.80797088  0.34347672    -0.12600
C1754       C  0.93386510  0.82081843  0.34114722     0.04700
C1755       C  0.90565588  0.78889589  0.36206717     0.27100
C1756       C  0.90966418  0.77178019  0.36155011    -0.13300
C1757       C  0.89716094  0.75964614  0.36400709     0.05200
C1758       C  0.88038001  0.76447335  0.36648145    -0.09300
C1759       C  0.87703941  0.78175240  0.36931279     0.06000
C1760       C  0.88944277  0.79386422  0.36626422    -0.13600
Br1761     Br  0.90995859  0.79866924  0.32465899    -0.05700
Br1762     Br  0.95095796  0.82846803  0.39125586    -0.00100
Br1763     Br  0.90357673  0.73655256  0.36612944     0.00400
Br1764     Br  0.88427602  0.81750844  0.36749640    -0.04100
Br1765     Br  0.93639427  0.82949401  0.31873588     0.00500
Br1766     Br  0.92231258  0.79969668  0.39539991    -0.03300
Br1767     Br  0.93232662  0.76507447  0.35725075    -0.04200
Br1768     Br  0.85669572  0.78961377  0.37916715    -0.00200
C1769       C  0.02025143  0.89528771  0.34275721     0.01200
C1770       C  0.01877586  0.90803524  0.33057209     0.04000
C1771       C  0.03043257  0.92126627  0.33010426    -0.12100
C1772       C  0.04338079  0.92202433  0.34193192     0.23300
C1773       C  0.04532053  0.90901249  0.35356875    -0.12600
C1774       C  0.03397693  0.89556215  0.35381062     0.04700
C1775       C  0.05456355  0.93684361  0.34277745     0.27100
C1776       C  0.07013908  0.93653445  0.33477056    -0.13300
C1777       C  0.08143522  0.94988067  0.33706409     0.05200
C1778       C  0.07703123  0.96378697  0.34718557    -0.09300
C1779       C  0.06111417  0.96432955  0.35462065     0.06000
C1780       C  0.04998170  0.95083523  0.35252033    -0.13600
Br1781     Br  0.06334781  0.90996481  0.36953212    -0.05700
Br1782     Br  0.00025838  0.90829170  0.31517542    -0.00100
Br1783     Br  0.10331162  0.94834643  0.32718743     0.00400
Br1784     Br  0.02848063  0.95127783  0.36325277    -0.04100
Br1785     Br  0.03780808  0.87725353  0.36892592     0.00500
Br1786     Br  0.02850241  0.93872795  0.31360958    -0.03300
Br1787     Br  0.07602976  0.91754391  0.32097570    -0.04200
Br1788     Br  0.05419267  0.98377592  0.36721247    -0.00200
C1789       C  0.88173077  0.03367600  0.35337214     0.01200
C1790       C  0.87636369  0.04955070  0.34784947     0.04000
C1791       C  0.88749826  0.06320762  0.34775638    -0.12100
C1792       C  0.90414324  0.06096258  0.35276882     0.23300
C1793       C  0.90960035  0.04502160  0.35794539    -0.12600
C1794       C  0.89836796  0.03144064  0.35843074     0.04700
C1795       C  0.91598876  0.07532023  0.35245650     0.27100
C1796       C  0.92511370  0.07872465  0.33790759    -0.13300
C1797       C  0.93674272  0.09199807  0.33761856     0.05200
C1798       C  0.93962870  0.10195925  0.35222070    -0.09300
C1799       C  0.92997367  0.09853937  0.36677250     0.06000
C1800       C  0.91821698  0.08536488  0.36674988    -0.13600
Br1801     Br  0.93254238  0.04186178  0.36422909    -0.05700
Br1802     Br  0.85359226  0.05277295  0.34090185    -0.00100
Br1803     Br  0.94865367  0.09554938  0.31691262     0.00400
Br1804     Br  0.90493521  0.08085891  0.38637133    -0.04100
Br1805     Br  0.90587222  0.00964250  0.36551089     0.00500
Br1806     Br  0.87996860  0.08509990  0.34099410    -0.03300
Br1807     Br  0.92168846  0.06475467  0.31836892    -0.04200
Br1808     Br  0.93197325  0.11178004  0.38699303    -0.00200
C1809       C  0.88330120  0.96044211  0.35088655     0.01200
C1810       C  0.89529887  0.96267470  0.33810068     0.04000
C1811       C  0.90819158  0.95093864  0.33592473    -0.12100
C1812       C  0.90966222  0.93726440  0.34685546     0.23300
C1813       C  0.89808377  0.93522592  0.35990500    -0.12600
C1814       C  0.88483531  0.94662494  0.36183013     0.04700
C1815       C  0.92342875  0.92500745  0.34471484     0.27100
C1816       C  0.92077555  0.91010655  0.33555275    -0.13300
C1817       C  0.93327489  0.89777429  0.33479141     0.05200
C1818       C  0.94865388  0.90045074  0.34297004    -0.09300
C1819       C  0.95171384  0.91596536  0.35103508     0.06000
C1820       C  0.93902750  0.92805413  0.35218397    -0.13600
Br1821     Br  0.90051303  0.91669910  0.37515654    -0.05700
Br1822     Br  0.89506538  0.98241845  0.32419253    -0.00100
Br1823     Br  0.92870802  0.87684334  0.32347460     0.00400
Br1824     Br  0.94276316  0.94860756  0.36446196    -0.04100
Br1825     Br  0.86853983  0.94268684  0.37911147     0.00500
Br1826     Br  0.92398287  0.95350445  0.31794319    -0.03300
Br1827     Br  0.89972710  0.90646663  0.32448680    -0.04200
Br1828     Br  0.97350815  0.92096937  0.35999070    -0.00200
C1829       C  0.26471981  0.12816491  0.60066980     0.01200
C1830       C  0.28100598  0.13523514  0.60227072     0.04000
C1831       C  0.29271169  0.13345060  0.58920320    -0.12100
C1832       C  0.28794629  0.12629146  0.57382302     0.23300
C1833       C  0.27131494  0.12150543  0.57135576    -0.12600
C1834       C  0.25963687  0.12349630  0.58427960     0.04700
C1835       C  0.29964183  0.12608675  0.55938023     0.27100
C1836       C  0.29869225  0.13876518  0.54722599    -0.13300
C1837       C  0.30860406  0.13795650  0.53273111     0.05200
C1838       C  0.32038612  0.12489808  0.53068037    -0.09300
C1839       C  0.32174959  0.11254426  0.54336632     0.06000
C1840       C  0.31111680  0.11296378  0.55739196    -0.13600
Br1841     Br  0.26442314  0.11261467  0.54989859    -0.05700
Br1842     Br  0.28632336  0.15158345  0.61944680    -0.00100
Br1843     Br  0.30501792  0.15444531  0.51547552     0.00400
Br1844     Br  0.31213989  0.09554380  0.57403747    -0.04100
Br1845     Br  0.23664253  0.12380876  0.57791576     0.00500
Br1846     Br  0.31523534  0.14150220  0.59199041    -0.03300
Br1847     Br  0.28366777  0.15735671  0.55057509    -0.04200
Br1848     Br  0.33877918  0.09549737  0.54252747    -0.00200
C1849       C  0.02528802  0.09313182  0.64666972     0.01200
C1850       C  0.02172779  0.07890184  0.65647237     0.04000
C1851       C  0.03345163  0.06589876  0.65776552    -0.12100
C1852       C  0.04859131  0.06690080  0.64896896     0.23300
C1853       C  0.05208128  0.08102145  0.63903282    -0.12600
C1854       C  0.04053990  0.09420548  0.63802660     0.04700
C1855       C  0.06073140  0.05294636  0.64976243     0.27100
C1856       C  0.07377433  0.05336149  0.66150779    -0.13300
C1857       C  0.08608340  0.04080382  0.66133828     0.05200
C1858       C  0.08557285  0.02796778  0.64903498    -0.09300
C1859       C  0.07154867  0.02680140  0.63834309     0.06000
C1860       C  0.05935842  0.03940407  0.63853063    -0.13600
Br1861     Br  0.07266601  0.08214011  0.62667886    -0.05700
Br1862     Br  0.00039882  0.07674110  0.66734731    -0.00100
Br1863     Br  0.10341142  0.04156708  0.67804533     0.00400
Br1864     Br  0.04082626  0.03836113  0.62318123    -0.04100
Br1865     Br  0.04594711  0.11402343  0.62534237     0.00500
Br1866     Br  0.02879062  0.04657702  0.67141849    -0.03300
Br1867     Br  0.07484076  0.07146770  0.67757468    -0.04200
Br1868     Br  0.06812502  0.00729666  0.62428334    -0.00200
C1869       C  0.15834039  0.03013952  0.63795950     0.01200
C1870       C  0.15374019  0.04694090  0.64074357     0.04000
C1871       C  0.16585444  0.05964363  0.64026524    -0.12100
C1872       C  0.18244739  0.05557420  0.63641458     0.23300
C1873       C  0.18700702  0.03880841  0.63340277    -0.12600
C1874       C  0.17498172  0.02606011  0.63442734     0.04700
C1875       C  0.19488549  0.06906573  0.63450218     0.27100
C1876       C  0.19647416  0.07707389  0.61904504    -0.13300
C1877       C  0.20776814  0.09038343  0.61719008     0.05200
C1878       C  0.21829337  0.09531442  0.63061320    -0.09300
C1879       C  0.21664583  0.08693131  0.64615495     0.06000
C1880       C  0.20480281  0.07404001  0.64808968    -0.13600
Br1881     Br  0.20966779  0.03344671  0.62759726    -0.05700
Br1882     Br  0.13079388  0.05261677  0.64459650    -0.00100
Br1883     Br  0.20680460  0.10273440  0.59671295     0.00400
Br1884     Br  0.20189321  0.06308387  0.66938796    -0.04100
Br1885     Br  0.18129561  0.00301156  0.63117540     0.00500
Br1886     Br  0.15980774  0.08264988  0.64469536    -0.03300
Br1887     Br  0.18273396  0.06984195  0.60046494    -0.04200
Br1888     Br  0.23059378  0.09225990  0.66499171    -0.00200
C1889       C  0.15601483  0.95426820  0.63412539     0.01200
C1890       C  0.15509576  0.94073887  0.64553218     0.04000
C1891       C  0.16574211  0.92684618  0.64378765    -0.12100
C1892       C  0.17735558  0.92623564  0.63067147     0.23300
C1893       C  0.17788602  0.93927517  0.61886949    -0.12600
C1894       C  0.16706357  0.95309879  0.62036228     0.04700
C1895       C  0.18906939  0.91187330  0.62936703     0.27100
C1896       C  0.20438140  0.91241728  0.63792693    -0.13300
C1897       C  0.21551158  0.89886679  0.63673675     0.05200
C1898       C  0.21102340  0.88429846  0.62769617    -0.09300
C1899       C  0.19656542  0.88461953  0.61761018     0.06000
C1900       C  0.18528280  0.89804168  0.61900720    -0.13600
Br1901     Br  0.19368350  0.93814760  0.60072817    -0.05700
Br1902     Br  0.13832413  0.94027635  0.66283732    -0.00100
Br1903     Br  0.23793732  0.90153967  0.64501101     0.00400
Br1904     Br  0.16468393  0.89764179  0.60662646    -0.04100
Br1905     Br  0.16763399  0.97017158  0.60334780     0.00500
Br1906     Br  0.16437049  0.90837503  0.65924586    -0.03300
Br1907     Br  0.21027530  0.93202605  0.65086963    -0.04200
Br1908     Br  0.19304172  0.86772470  0.60054160    -0.00200
C1909       C  0.25924272  0.85524624  0.59990056     0.01200
C1910       C  0.26413240  0.87068742  0.59231048     0.04000
C1911       C  0.27340708  0.87068922  0.57738956    -0.12100
C1912       C  0.28087163  0.85586017  0.57164186     0.23300
C1913       C  0.27905221  0.84110214  0.58099592    -0.12600
C1914       C  0.26824450  0.84065737  0.59492089     0.04700
C1915       C  0.29173319  0.85602328  0.55654053     0.27100
C1916       C  0.28591550  0.84921482  0.54130708    -0.13300
C1917       C  0.29643259  0.84863510  0.52722417     0.05200
C1918       C  0.31276881  0.85502512  0.52824417    -0.09300
C1919       C  0.31837130  0.86246165  0.54329738     0.06000
C1920       C  0.30801196  0.86263585  0.55749234    -0.13600
Br1921     Br  0.29214850  0.82168719  0.57495856    -0.05700
Br1922     Br  0.26215268  0.89204090  0.60378512    -0.00100
Br1923     Br  0.28822133  0.83985728  0.50626186     0.00400
Br1924     Br  0.31633292  0.87137898  0.57845325    -0.04100
Br1925     Br  0.26823886  0.82047553  0.60797595     0.00500
Br1926     Br  0.27618735  0.89119681  0.56492815    -0.03300
Br1927     Br  0.26350553  0.84062547  0.53982837    -0.04200
Br1928     Br  0.34038718  0.87214469  0.54468285    -0.00200
C1929       C  0.95226068  0.09667857  0.64708245     0.01200
C1930       C  0.94080199  0.09789074  0.66056637     0.04000
C1931       C  0.92774746  0.08615546  0.66211912    -0.12100
C1932       C  0.92517875  0.07388119  0.64970107     0.23300
C1933       C  0.93603731  0.07298920  0.63594583    -0.12600
C1934       C  0.94987713  0.08384115  0.63492933     0.04700
C1935       C  0.91104293  0.06185749  0.65110839     0.27100
C1936       C  0.91372747  0.04562286  0.65744994    -0.13300
C1937       C  0.90043944  0.03410369  0.65842157     0.05200
C1938       C  0.88438482  0.03877357  0.65305934    -0.09300
C1939       C  0.88165848  0.05509016  0.64695302     0.06000
C1940       C  0.89495693  0.06659421  0.64595465    -0.13600
Br1941     Br  0.93167221  0.05691105  0.61833498    -0.05700
Br1942     Br  0.94183823  0.11612756  0.67656072    -0.00100
Br1943     Br  0.90444284  0.01165754  0.66635245     0.00400
Br1944     Br  0.89127425  0.08879056  0.63724544    -0.04100
Br1945     Br  0.96587839  0.08000627  0.61729937     0.00500
Br1946     Br  0.91319529  0.08679602  0.68131693    -0.03300
Br1947     Br  0.93573283  0.03914547  0.66454260    -0.04200
Br1948     Br  0.85958960  0.06177308  0.64029147    -0.00200
C1949       C  0.01917831  0.90079122  0.64626083     0.01200
C1950       C  0.03381499  0.89656145  0.65500889     0.04000
C1951       C  0.04688084  0.90819906  0.65620319    -0.12100
C1952       C  0.04553342  0.92379293  0.64819389     0.23300
C1953       C  0.03090155  0.92809295  0.63956367    -0.12600
C1954       C  0.01765911  0.91662748  0.63867981     0.04700
C1955       C  0.05990235  0.93526825  0.64790609     0.27100
C1956       C  0.06060982  0.94897548  0.65901067    -0.13300
C1957       C  0.07376571  0.96050941  0.65788567     0.05200
C1958       C  0.08648370  0.95796558  0.64598819    -0.09300
C1959       C  0.08607206  0.94386110  0.63532082     0.06000
C1960       C  0.07263377  0.93265540  0.63611277    -0.13600
Br1961     Br  0.02918919  0.94960831  0.62873810    -0.05700
Br1962     Br  0.03659260  0.87440522  0.66424742    -0.00100
Br1963     Br  0.07364092  0.98032288  0.67189091     0.00400
Br1964     Br  0.07145118  0.91384290  0.62086240    -0.04100
Br1965     Br  0.99736703  0.92279502  0.62736724     0.00500
Br1966     Br  0.06679597  0.90278226  0.66853186    -0.03300
Br1967     Br  0.04338656  0.95199053  0.67554661    -0.04200
Br1968     Br  0.10417618  0.93949288  0.62004974    -0.00200
C1969       C  0.94683590  0.90301824  0.64494116     0.01200
C1970       C  0.94961102  0.91714780  0.65532276     0.04000
C1971       C  0.93768396  0.93004586  0.65619669    -0.12100
C1972       C  0.92301988  0.92901136  0.64658445     0.23300
C1973       C  0.92038430  0.91509201  0.63597954    -0.12600
C1974       C  0.93218633  0.90208577  0.63522163     0.04700
C1975       C  0.91011931  0.94231698  0.64790812     0.27100
C1976       C  0.89710191  0.94068406  0.65955254    -0.13300
C1977       C  0.88429039  0.95269632  0.66022335     0.05200
C1978       C  0.88474788  0.96688487  0.64964611    -0.09300
C1979       C  0.89812487  0.96867142  0.63823969     0.06000
C1980       C  0.91060483  0.95631064  0.63726113    -0.13600
Br1981     Br  0.90045246  0.91387714  0.62257066    -0.05700
Br1982     Br  0.97008602  0.91930805  0.66779727    -0.00100
Br1983     Br  0.86560422  0.94881825  0.67489141     0.00400
Br1984     Br  0.92848616  0.95842511  0.62130916    -0.04100
Br1985     Br  0.92778024  0.88259088  0.62149112     0.00500
Br1986     Br  0.94133503  0.94920892  0.67056032    -0.03300
Br1987     Br  0.89691336  0.92181303  0.67457717    -0.04200
Br1988     Br  0.90002286  0.98833164  0.62433734    -0.00200
C1989       C  0.89102667  0.22830078  0.63171564     0.01200
C1990       C  0.89415387  0.21953374  0.64699528     0.04000
C1991       C  0.90833407  0.20938298  0.64876670    -0.12100
C1992       C  0.91906531  0.20680866  0.63521598     0.23300
C1993       C  0.91570407  0.21437499  0.61982084    -0.12600
C1994       C  0.90129783  0.22417259  0.61772315     0.04700
C1995       C  0.93212887  0.19378279  0.63632808     0.27100
C1996       C  0.94823669  0.19787180  0.64197563    -0.13300
C1997       C  0.96029202  0.18521213  0.64355289     0.05200
C1998       C  0.95628838  0.16852425  0.63921397    -0.09300
C1999       C  0.94024509  0.16449170  0.63333537     0.06000
C2000       C  0.92816148  0.17708844  0.63196357    -0.13600
Br2001     Br  0.93057078  0.21020767  0.60123881    -0.05700
Br2002     Br  0.87819642  0.21896956  0.66518548    -0.00100
Br2003     Br  0.98238333  0.19076382  0.65126474     0.00400
Br2004     Br  0.90605574  0.17149954  0.62422533    -0.04100
Br2005     Br  0.89417619  0.22688626  0.59494165     0.00500
Br2006     Br  0.91294909  0.19826807  0.66969979    -0.03300
Br2007     Br  0.95369451  0.22081897  0.64738074    -0.04200
Br2008     Br  0.93462588  0.14156735  0.62777323    -0.00200
C2009       C  0.85578643  0.27466731  0.60232538     0.01200
C2010       C  0.84980219  0.29113273  0.60577550     0.04000
C2011       C  0.84628439  0.30227715  0.59257317    -0.12100
C2012       C  0.84964131  0.29764887  0.57593928     0.23300
C2013       C  0.85546627  0.28144577  0.57239068    -0.12600
C2014       C  0.85747162  0.26976011  0.58534030     0.04700
C2015       C  0.84687984  0.30974304  0.56210386     0.27100
C2016       C  0.83295007  0.30802753  0.55153486    -0.13300
C2017       C  0.83089363  0.31882013  0.53779103     0.05200
C2018       C  0.84218455  0.33224002  0.53518225    -0.09300
C2019       C  0.85578504  0.33432111  0.54637329     0.06000
C2020       C  0.85837943  0.32276746  0.55935926    -0.13600
Br2021     Br  0.86082408  0.27530360  0.54962454    -0.05700
Br2022     Br  0.84634845  0.29936942  0.62814799    -0.00100
Br2023     Br  0.81318628  0.31416083  0.52210133     0.00400
Br2024     Br  0.87789873  0.32457865  0.57338661    -0.04100
Br2025     Br  0.85996591  0.24659452  0.57915889     0.00500
Br2026     Br  0.83669822  0.32405563  0.59708609    -0.03300
Br2027     Br  0.81663936  0.29079423  0.55601739    -0.04200
Br2028     Br  0.87060667  0.35343235  0.54494059    -0.00200
C2029       C  0.15888121  0.22152455  0.63858449     0.01200
C2030       C  0.15975134  0.20947641  0.65164508     0.04000
C2031       C  0.17174729  0.19662940  0.65114254    -0.12100
C2032       C  0.18203709  0.19483932  0.63704660     0.23300
C2033       C  0.18195624  0.20729005  0.62470413    -0.12600
C2034       C  0.17208510  0.22157390  0.62679692     0.04700
C2035       C  0.19383674  0.18063442  0.63578137     0.27100
C2036       C  0.21103896  0.18352189  0.63764247    -0.13300
C2037       C  0.22235598  0.17035914  0.63515442     0.05200
C2038       C  0.21648075  0.15392319  0.63192733    -0.09300
C2039       C  0.19915829  0.15085124  0.63147603     0.06000
C2040       C  0.18790787  0.16427483  0.63270162    -0.13600
Br2041     Br  0.19540323  0.20501054  0.60483153    -0.05700
Br2042     Br  0.14515011  0.21028424  0.67065008    -0.00100
Br2043     Br  0.24592322  0.17486661  0.63718849     0.00400
Br2044     Br  0.16433768  0.16035443  0.62970037    -0.04100
Br2045     Br  0.18133618  0.24216481  0.61823737     0.00500
Br2046     Br  0.17414598  0.18135627  0.66968302    -0.03300
Br2047     Br  0.21907006  0.20551526  0.64399070    -0.04200
Br2048     Br  0.19045925  0.12848544  0.62919768    -0.00200
C2049       C  0.02841876  0.16637924  0.63918139     0.01200
C2050       C  0.02728603  0.17935206  0.62721944     0.04000
C2051       C  0.03996963  0.19152706  0.62606338    -0.12100
C2052       C  0.05384103  0.19084213  0.63678095     0.23300
C2053       C  0.05495290  0.17804559  0.64879858    -0.12600
C2054       C  0.04232686  0.16583532  0.65000598     0.04700
C2055       C  0.06779154  0.20295683  0.63484341     0.27100
C2056       C  0.08042498  0.19962667  0.62316472    -0.13300
C2057       C  0.09449779  0.21009597  0.62232823     0.05200
C2058       C  0.09632522  0.22378083  0.63359598    -0.09300
C2059       C  0.08294752  0.22785848  0.64435758     0.06000
C2060       C  0.06878814  0.21737012  0.64503404    -0.13600
Br2061     Br  0.07409621  0.17709316  0.66335541    -0.05700
Br2062     Br  0.00815481  0.18099801  0.61270556    -0.00100
Br2063     Br  0.11101846  0.20567337  0.60528969     0.00400
Br2064     Br  0.05092355  0.22222583  0.66040483    -0.04100
Br2065     Br  0.04479778  0.14781203  0.66586637     0.00500
Br2066     Br  0.03852319  0.20918817  0.60972337    -0.03300
Br2067     Br  0.07869681  0.18017781  0.60877268    -0.04200
Br2068     Br  0.08385341  0.24729895  0.65868255    -0.00200
C2069       C  0.12743346  0.26491019  0.60471877     0.01200
C2070       C  0.14011630  0.27719812  0.60305431     0.04000
C2071       C  0.13973443  0.28860367  0.58974094    -0.12100
C2072       C  0.12694388  0.28767662  0.57779472     0.23300
C2073       C  0.11430386  0.27550765  0.57934205    -0.12600
C2074       C  0.11440794  0.26428378  0.59290437     0.04700
C2075       C  0.12647309  0.30007967  0.56405437     0.27100
C2076       C  0.11762734  0.31512153  0.56625067    -0.13300
C2077       C  0.11772734  0.32731617  0.55363547     0.05200
C2078       C  0.12632230  0.32433012  0.53851008    -0.09300
C2079       C  0.13539261  0.30932239  0.53641334     0.06000
C2080       C  0.13555536  0.29728408  0.54924673    -0.13600
Br2081     Br  0.09695408  0.27425314  0.56271156    -0.05700
Br2082     Br  0.15747117  0.27952590  0.61966673    -0.00100
Br2083     Br  0.10702184  0.34861778  0.55770926     0.00400
Br2084     Br  0.14832605  0.27698256  0.54673874    -0.04100
Br2085     Br  0.09687124  0.24794917  0.59495949     0.00500
Br2086     Br  0.15656450  0.30585839  0.58795558    -0.03300
Br2087     Br  0.10564702  0.31909700  0.58679671    -0.04200
Br2088     Br  0.14714885  0.30488784  0.51584093    -0.00200
C2089       C  0.26051067  0.40704511  0.84557103     0.01200
C2090       C  0.27611017  0.40732776  0.83719023     0.04000
C2091       C  0.28681960  0.42118242  0.83913820    -0.12100
C2092       C  0.28133623  0.43554995  0.84772018     0.23300
C2093       C  0.26467987  0.43659296  0.85296519    -0.12600
C2094       C  0.25404410  0.42265694  0.85113341     0.04700
C2095       C  0.29272694  0.45002464  0.85007653     0.27100
C2096       C  0.30363011  0.45045340  0.86381093    -0.13300
C2097       C  0.31471018  0.46400181  0.86592549     0.05200
C2098       C  0.31443273  0.47766877  0.85461757    -0.09300
C2099       C  0.30342702  0.47705275  0.84076160     0.06000
C2100       C  0.29285165  0.46314364  0.83840491    -0.13600
Br2101     Br  0.25652042  0.45714138  0.86276361    -0.05700
Br2102     Br  0.28160589  0.39089878  0.82020332    -0.00100
Br2103     Br  0.33111806  0.46271071  0.88356851     0.00400
Br2104     Br  0.27862244  0.46176416  0.81896810    -0.04100
Br2105     Br  0.23036344  0.42612507  0.85348068     0.00500
Br2106     Br  0.30903586  0.42060631  0.82998720    -0.03300
Br2107     Br  0.30348964  0.43215507  0.87954919    -0.04200
Br2108     Br  0.30217760  0.49523061  0.82498794    -0.00200
C2109       C  0.16920841  0.37508149  0.02754061     0.01200
C2110       C  0.17961719  0.36077134  0.02874679     0.04000
C2111       C  0.19083837  0.35916361  0.04215466    -0.12100
C2112       C  0.19189970  0.37175500  0.05445630     0.23300
C2113       C  0.18257200  0.38651510  0.05278156    -0.12600
C2114       C  0.17154493  0.38842420  0.03921813     0.04700
C2115       C  0.20275890  0.36936591  0.06927378     0.27100
C2116       C  0.19713564  0.35966091  0.08274718    -0.13300
C2117       C  0.20746323  0.35710771  0.09671110     0.05200
C2118       C  0.22288655  0.36581515  0.09818594    -0.09300
C2119       C  0.22943985  0.37313958  0.08333868     0.06000
C2120       C  0.21913252  0.37554703  0.06930113    -0.13600
Br2121     Br  0.18475431  0.40396435  0.06949706    -0.05700
Br2122     Br  0.17971689  0.34362006  0.01163715    -0.00100
Br2123     Br  0.20150192  0.33916914  0.11168119     0.00400
Br2124     Br  0.22742443  0.38712579  0.04983858    -0.04100
Br2125     Br  0.16010146  0.40960442  0.03720650     0.00500
Br2126     Br  0.20484885  0.33959253  0.04388261    -0.03300
Br2127     Br  0.17517358  0.34975345  0.08192589    -0.04200
Br2128     Br  0.25299871  0.37704536  0.08039805    -0.00200
C2129       C  0.22113385  0.37215058  0.88249907     0.01200
C2130       C  0.22714295  0.37784159  0.89832393     0.04000
C2131       C  0.21659512  0.37830705  0.91241031    -0.12100
C2132       C  0.20019955  0.37230418  0.91129701     0.23300
C2133       C  0.19461464  0.36499606  0.89629847    -0.12600
C2134       C  0.20499435  0.36454386  0.88204505     0.04700
C2135       C  0.18881937  0.37328404  0.92600954     0.27100
C2136       C  0.18811146  0.36005628  0.93754207    -0.13300
C2137       C  0.17674937  0.36054170  0.95099402     0.05200
C2138       C  0.16589825  0.37446356  0.95314335    -0.09300
C2139       C  0.16666454  0.38769080  0.94127650     0.06000
C2140       C  0.17814811  0.38709025  0.92794097    -0.13600
Br2141     Br  0.17232320  0.35576745  0.89546869    -0.05700
Br2142     Br  0.25034271  0.38332521  0.90174534    -0.00100
Br2143     Br  0.17668798  0.34190527  0.96629235     0.00400
Br2144     Br  0.17918823  0.40509125  0.91188993    -0.04100
Br2145     Br  0.19625742  0.35267323  0.86286187     0.00500
Br2146     Br  0.22448446  0.38729666  0.93343988    -0.03300
Br2147     Br  0.20282594  0.34114427  0.93464963    -0.04200
Br2148     Br  0.15131272  0.40630127  0.94205275    -0.00200
C2149       C  0.84754502  0.33638661  0.26418493     0.01200
C2150       C  0.83070408  0.33340976  0.26892621     0.04000
C2151       C  0.82704366  0.32384500  0.28330052    -0.12100
C2152       C  0.83977502  0.31510911  0.29158055     0.23300
C2153       C  0.85631271  0.31692749  0.28613293    -0.12600
C2154       C  0.86030300  0.32871811  0.27381370     0.04700
C2155       C  0.83633309  0.30452500  0.30648221     0.27100
C2156       C  0.84348441  0.30903394  0.32197961    -0.13300
C2157       C  0.84552241  0.29684380  0.33441774     0.05200
C2158       C  0.83793093  0.28094410  0.33255898    -0.09300
C2159       C  0.82832365  0.27748732  0.31823086     0.06000
C2160       C  0.82837099  0.28880491  0.30476847    -0.13600
Br2161     Br  0.87377878  0.30335891  0.29578026    -0.05700
Br2162     Br  0.81215479  0.34164586  0.25612841    -0.00100
Br2163     Br  0.86003610  0.30155516  0.35316142     0.00400
Br2164     Br  0.81915323  0.28192198  0.28353431    -0.04100
Br2165     Br  0.88321824  0.33614992  0.27300521     0.00500
Br2166     Br  0.80469686  0.32328925  0.29217307    -0.03300
Br2167     Br  0.85171420  0.33155380  0.32555897    -0.04200
Br2168     Br  0.81613518  0.25676462  0.31653520    -0.00200
C2169       C  0.84196884  0.46139691  0.31904027     0.01200
C2170       C  0.82941126  0.45751282  0.30698570     0.04000
C2171       C  0.83186631  0.44455489  0.29513866    -0.12100
C2172       C  0.84697768  0.43577987  0.29460103     0.23300
C2173       C  0.85975884  0.43997022  0.30583899    -0.12600
C2174       C  0.85732759  0.45245650  0.31812591     0.04700
C2175       C  0.84926326  0.42139596  0.28288738     0.27100
C2176       C  0.84613920  0.40503872  0.28850790    -0.13300
C2177       C  0.84977918  0.39116756  0.27822830     0.05200
C2178       C  0.85564742  0.39346198  0.26167204    -0.09300
C2179       C  0.85885475  0.41009033  0.25610115     0.06000
C2180       C  0.85574320  0.42390546  0.26675821    -0.13600
Br2181     Br  0.88064895  0.42803405  0.30445135    -0.05700
Br2182     Br  0.80883596  0.46995123  0.30567485    -0.00100
Br2183     Br  0.84840564  0.36927577  0.28807612     0.00400
Br2184     Br  0.86034816  0.44646797  0.25941461    -0.04100
Br2185     Br  0.87539914  0.45613243  0.33374793     0.00500
Br2186     Br  0.81440164  0.43836641  0.27966013    -0.03300
Br2187     Br  0.83701503  0.40174771  0.31062003    -0.04200
Br2188     Br  0.86715147  0.41460185  0.23386948    -0.00200
C2189       C  0.09517584  0.37855803  0.02906362     0.01200
C2190       C  0.09808132  0.38613471  0.04479588     0.04000
C2191       C  0.08549386  0.38632472  0.05710701    -0.12100
C2192       C  0.06976954  0.37917798  0.05374088     0.23300
C2193       C  0.06671546  0.37191021  0.03792217    -0.12600
C2194       C  0.07940790  0.37136081  0.02573496     0.04700
C2195       C  0.05685910  0.37817013  0.06718916     0.27100
C2196       C  0.05568904  0.36367255  0.07704906    -0.13300
C2197       C  0.04357276  0.36241813  0.08975559     0.05200
C2198       C  0.03167398  0.37541121  0.09223847    -0.09300
C2199       C  0.03320514  0.39019339  0.08238543     0.06000
C2200       C  0.04585735  0.39155293  0.07014764    -0.13600
Br2201     Br  0.04507227  0.36254404  0.03309357    -0.05700
Br2202     Br  0.11968984  0.39520048  0.05000587    -0.00100
Br2203     Br  0.04460501  0.34311985  0.10428331     0.00400
Br2204     Br  0.04820438  0.41177079  0.05715333    -0.04100
Br2205     Br  0.07503916  0.36076258  0.00442824     0.00500
Br2206     Br  0.08989259  0.39589747  0.07886248    -0.03300
Br2207     Br  0.07093628  0.34540330  0.07297945    -0.04200
Br2208     Br  0.01800943  0.40877352  0.08482643    -0.00200
C2209       C  0.02822853  0.37050689  0.16519247     0.01200
C2210       C  0.04185107  0.38175840  0.16448107     0.04000
C2211       C  0.05417976  0.38147509  0.17702853    -0.12100
C2212       C  0.05292288  0.37004921  0.19033032     0.23300
C2213       C  0.03901691  0.35934733  0.19143832    -0.12600
C2214       C  0.02669756  0.35962473  0.17897463     0.04700
C2215       C  0.06699473  0.36777686  0.20211980     0.27100
C2216       C  0.07896370  0.35554464  0.19849186    -0.13300
C2217       C  0.09130959  0.35174093  0.21027543     0.05200
C2218       C  0.09332258  0.36160305  0.22494530    -0.09300
C2219       C  0.07960305  0.37185604  0.22964816     0.06000
C2220       C  0.06699587  0.37555921  0.21793253    -0.13600
Br2221     Br  0.03723018  0.34381659  0.20982332    -0.05700
Br2222     Br  0.04431607  0.39685789  0.14584759    -0.00100
Br2223     Br  0.10218399  0.33059366  0.20788712     0.00400
Br2224     Br  0.04931286  0.39083939  0.22364391    -0.04100
Br2225     Br  0.00748094  0.34540757  0.18126565     0.00500
Br2226     Br  0.07320006  0.39621069  0.17577421    -0.03300
Br2227     Br  0.07803446  0.34351260  0.17744433    -0.04200
Br2228     Br  0.07499416  0.37672068  0.25288126    -0.00200
C2229       C  0.88640192  0.35679053  0.21838948     0.01200
C2230       C  0.88545139  0.34785961  0.20296161     0.04000
C2231       C  0.89876419  0.34844404  0.19149512    -0.12100
C2232       C  0.91365591  0.35668732  0.19578920     0.23300
C2233       C  0.91577962  0.36277523  0.21216906    -0.12600
C2234       C  0.90254543  0.36200065  0.22370941     0.04700
C2235       C  0.92743718  0.35809595  0.18340792     0.27100
C2236       C  0.93984491  0.34573458  0.18255838    -0.13300
C2237       C  0.95300360  0.34715914  0.17096499     0.05200
C2238       C  0.95427792  0.36148895  0.16048268    -0.09300
C2239       C  0.94116344  0.37342353  0.16088354     0.06000
C2240       C  0.92793458  0.37171552  0.17233701    -0.13600
Br2241     Br  0.93702529  0.37203853  0.21878210    -0.05700
Br2242     Br  0.86734930  0.33261758  0.19823257    -0.00100
Br2243     Br  0.96867259  0.32891260  0.16967926     0.00400
Br2244     Br  0.91018646  0.38798684  0.17289270    -0.04100
Br2245     Br  0.90806039  0.36452973  0.24711592     0.00500
Br2246     Br  0.89673922  0.33790741  0.16980381    -0.03300
Br2247     Br  0.93867718  0.32680263  0.19751405    -0.04200
Br2248     Br  0.94005941  0.39147572  0.14486334    -0.00200
C2249       C  0.02399007  0.37692885  0.90230450     0.01200
C2250       C  0.03773154  0.38742328  0.89852989     0.04000
C2251       C  0.05153621  0.38810974  0.90933584    -0.12100
C2252       C  0.05201980  0.37789190  0.92360452     0.23300
C2253       C  0.03856149  0.36716689  0.92722629    -0.12600
C2254       C  0.02447618  0.36686119  0.91676413     0.04700
C2255       C  0.06660503  0.37851392  0.93495959     0.27100
C2256       C  0.08084392  0.36889178  0.93139073    -0.13300
C2257       C  0.09435795  0.36890734  0.94258694     0.05200
C2258       C  0.09358801  0.37843304  0.95749257    -0.09300
C2259       C  0.07945816  0.38838991  0.96082540     0.06000
C2260       C  0.06605791  0.38848946  0.94951606    -0.13600
Br2261     Br  0.03954123  0.35287967  0.94661219    -0.05700
Br2262     Br  0.03837146  0.40017018  0.87804331    -0.00100
Br2263     Br  0.11419907  0.35646066  0.93707436     0.00400
Br2264     Br  0.04680395  0.40221404  0.95393354    -0.04100
Br2265     Br  0.00561014  0.35327095  0.92287314     0.00500
Br2266     Br  0.06988726  0.40305851  0.90468589    -0.03300
Br2267     Br  0.08172210  0.35566822  0.91114245    -0.04200
Br2268     Br  0.07793332  0.40128998  0.98126302    -0.00200
C2269       C  0.88681115  0.36787205  0.03636662     0.01200
C2270       C  0.88614103  0.37690325  0.05158407     0.04000
C2271       C  0.89963396  0.37633657  0.06281166    -0.12100
C2272       C  0.91393460  0.36698082  0.05877911     0.23300
C2273       C  0.91458861  0.35787940  0.04367824    -0.12600
C2274       C  0.90108415  0.35827978  0.03250284     0.04700
C2275       C  0.92850204  0.36701006  0.07019710     0.27100
C2276       C  0.94200322  0.37787424  0.06713091    -0.13300
C2277       C  0.95602330  0.37768165  0.07767192     0.05200
C2278       C  0.95640634  0.36695986  0.09163990    -0.09300
C2279       C  0.94277124  0.35616788  0.09477370     0.06000
C2280       C  0.92897530  0.35604202  0.08392576    -0.13600
Br2281     Br  0.93415634  0.34494395  0.03831577    -0.05700
Br2282     Br  0.86657438  0.38962404  0.05741469    -0.00100
Br2283     Br  0.97498001  0.39159130  0.07248249     0.00400
Br2284     Br  0.91057980  0.34095632  0.08787595    -0.04100
Br2285     Br  0.90270611  0.34631515  0.01150156     0.00500
Br2286     Br  0.89859310  0.38829942  0.08381079    -0.03300
Br2287     Br  0.94113748  0.39313492  0.04850171    -0.04200
Br2288     Br  0.94234603  0.34227333  0.11448986    -0.00200
C2289       C  0.88451724  0.37128172  0.96507624     0.01200
C2290       C  0.89956124  0.37989423  0.96827545     0.04000
C2291       C  0.91180769  0.38096011  0.95577585    -0.12100
C2292       C  0.90913298  0.37335119  0.94007208     0.23300
C2293       C  0.89410200  0.36478462  0.93683379    -0.12600
C2294       C  0.88176189  0.36383216  0.94928014     0.04700
C2295       C  0.92239002  0.37400142  0.92717045     0.27100
C2296       C  0.92399538  0.38809806  0.91682651    -0.13300
C2297       C  0.93709456  0.38911234  0.90514455     0.05200
C2298       C  0.94859424  0.37566975  0.90341357    -0.09300
C2299       C  0.94675546  0.36146030  0.91402753     0.06000
C2300       C  0.93374154  0.36074194  0.92577383    -0.13600
Br2301     Br  0.89050647  0.35438371  0.91530786    -0.05700
Br2302     Br  0.90376485  0.38967477  0.99000921    -0.00100
Br2303     Br  0.93853570  0.40909424  0.89167456     0.00400
Br2304     Br  0.93137827  0.34155086  0.94029472    -0.04100
Br2305     Br  0.86075889  0.35306959  0.94438327     0.00500
Br2306     Br  0.93241045  0.39268811  0.96015282    -0.03300
Br2307     Br  0.90791532  0.40597367  0.91872649    -0.04200
Br2308     Br  0.96218985  0.34288899  0.91364503    -0.00200
C2309       C  0.26441337  0.61509594  0.13919274     0.01200
C2310       C  0.27991254  0.61426575  0.13092348     0.04000
C2311       C  0.29051553  0.60042486  0.13342758    -0.12100
C2312       C  0.28575638  0.58736552  0.14427807     0.23300
C2313       C  0.27005562  0.58793164  0.15206328    -0.12600
C2314       C  0.25904293  0.60118416  0.14865564     0.04700
C2315       C  0.29673356  0.57248201  0.14653792     0.27100
C2316       C  0.29387809  0.55770647  0.13718064    -0.13300
C2317       C  0.30455755  0.54380893  0.13890106     0.05200
C2318       C  0.31822839  0.54456611  0.14999780    -0.09300
C2319       C  0.32092117  0.55932920  0.15948068     0.06000
C2320       C  0.31017803  0.57317342  0.15781396    -0.13600
Br2321     Br  0.26353691  0.57034131  0.16719320    -0.05700
Br2322     Br  0.28579105  0.63108160  0.11466118    -0.00100
Br2323     Br  0.30017268  0.52357834  0.12627292     0.00400
Br2324     Br  0.31395071  0.59329704  0.17078944    -0.04100
Br2325     Br  0.23585464  0.59867850  0.15444767     0.00500
Br2326     Br  0.31129258  0.59892418  0.12146672    -0.03300
Br2327     Br  0.27539816  0.55665578  0.12179510    -0.04200
Br2328     Br  0.33999806  0.56121661  0.17389769    -0.00200
C2329       C  0.02272398  0.64926951  0.09952459     0.01200
C2330       C  0.03319478  0.66366478  0.09896051     0.04000
C2331       C  0.04491401  0.66546266  0.08599931    -0.12100
C2332       C  0.04652265  0.65291168  0.07374349     0.23300
C2333       C  0.03624305  0.63869207  0.07408107    -0.12600
C2334       C  0.02455477  0.63664930  0.08694493     0.04700
C2335       C  0.06017056  0.65359759  0.06139728     0.27100
C2336       C  0.05745252  0.66041563  0.04543215    -0.13300
C2337       C  0.07005052  0.65951628  0.03327101     0.05200
C2338       C  0.08527412  0.65162910  0.03706530    -0.09300
C2339       C  0.08790185  0.64471662  0.05300413     0.06000
C2340       C  0.07543796  0.64589266  0.06522198    -0.13600
Br2341     Br  0.03866378  0.62171849  0.05686054    -0.05700
Br2342     Br  0.03309542  0.68038266  0.11655220    -0.00100
Br2343     Br  0.06612874  0.66825547  0.01115908     0.00400
Br2344     Br  0.07911337  0.63676940  0.08722498    -0.04100
Br2345     Br  0.01184635  0.61594312  0.08678901     0.00500
Br2346     Br  0.05929285  0.68488461  0.08513030    -0.03300
Br2347     Br  0.03632624  0.67056028  0.04023167    -0.04200
Br2348     Br  0.10864815  0.63379163  0.05819579    -0.00200
C2349       C  0.15840374  0.64834083  0.03980675     0.01200
C2350       C  0.17216745  0.63759866  0.03736410     0.04000
C2351       C  0.18427436  0.63586405  0.04995890    -0.12100
C2352       C  0.18288713  0.64498916  0.06500877     0.23300
C2353       C  0.16932238  0.65589053  0.06741258    -0.12600
C2354       C  0.15706865  0.65753900  0.05489309     0.04700
C2355       C  0.19574734  0.64314078  0.07828368     0.27100
C2356       C  0.19377664  0.63107409  0.09090564    -0.13300
C2357       C  0.20572529  0.62968496  0.10375726     0.05200
C2358       C  0.21942731  0.64100756  0.10451953    -0.09300
C2359       C  0.22292880  0.65041412  0.08983681     0.06000
C2360       C  0.21061855  0.65241316  0.07747351    -0.13600
Br2361     Br  0.16758941  0.66846491  0.08799662    -0.05700
Br2362     Br  0.17501376  0.62576617  0.01642516    -0.00100
Br2363     Br  0.20418243  0.61076515  0.11870956     0.00400
Br2364     Br  0.21424637  0.66762833  0.05911952    -0.04100
Br2365     Br  0.13809960  0.67178092  0.05888061     0.00500
Br2366     Br  0.20284922  0.62092661  0.04667079    -0.03300
Br2367     Br  0.17473867  0.61627363  0.09030459    -0.04200
Br2368     Br  0.24543743  0.65677284  0.08397866    -0.00200
C2369       C  0.22124999  0.65916643  0.90331927     0.01200
C2370       C  0.20724795  0.66996992  0.90480219     0.04000
C2371       C  0.19616897  0.66820389  0.91830338    -0.12100
C2372       C  0.19966170  0.65679083  0.93116689     0.23300
C2373       C  0.21514148  0.64861191  0.93141063    -0.12600
C2374       C  0.22630188  0.65050964  0.91794668     0.04700
C2375       C  0.18717774  0.65393677  0.94458633     0.27100
C2376       C  0.18808842  0.66297805  0.95973329    -0.13300
C2377       C  0.17542588  0.66126866  0.97176865     0.05200
C2378       C  0.16144200  0.65096616  0.96846568    -0.09300
C2379       C  0.16080011  0.64154685  0.95347741     0.06000
C2380       C  0.17373571  0.64291314  0.94167930    -0.13600
Br2381     Br  0.22100651  0.63478715  0.95022243    -0.05700
Br2382     Br  0.20387676  0.68848941  0.88962022    -0.00100
Br2383     Br  0.17766272  0.67258879  0.99306910     0.00400
Br2384     Br  0.17292029  0.63005011  0.92119139    -0.04100
Br2385     Br  0.24936522  0.64486456  0.92169237     0.00500
Br2386     Br  0.17596329  0.68123428  0.91914280    -0.03300
Br2387     Br  0.20645656  0.67811371  0.96373275    -0.04200
Br2388     Br  0.14174191  0.62762336  0.94843636    -0.00200
C2389       C  0.31498803  0.55466942  0.85966419     0.01200
C2390       C  0.31526448  0.56673802  0.87277258     0.04000
C2391       C  0.30384053  0.58013678  0.87290544    -0.12100
C2392       C  0.29241350  0.58207174  0.85972343     0.23300
C2393       C  0.29249818  0.57057686  0.84631416    -0.12600
C2394       C  0.30359359  0.55687430  0.84630457     0.04700
C2395       C  0.28052340  0.59642918  0.85992346     0.27100
C2396       C  0.26436210  0.59432414  0.86622159    -0.13300
C2397       C  0.25354871  0.60816188  0.86763527     0.05200
C2398       C  0.25898012  0.62461976  0.86336127    -0.09300
C2399       C  0.27477440  0.62618318  0.85528415     0.06000
C2400       C  0.28547224  0.61219639  0.85392958    -0.13600
Br2401     Br  0.27733463  0.57380039  0.82789023    -0.05700
Br2402     Br  0.33208174  0.56601583  0.89003514    -0.00100
Br2403     Br  0.23082262  0.60368458  0.87397285     0.00400
Br2404     Br  0.30732084  0.61445325  0.84404105    -0.04100
Br2405     Br  0.30253365  0.54105513  0.82803939     0.00500
Br2406     Br  0.30382796  0.59611239  0.89113805    -0.03300
Br2407     Br  0.25718667  0.57226995  0.87311169    -0.04200
Br2408     Br  0.28263318  0.64672954  0.84536280    -0.00200
C2409       C  0.88621835  0.64767768  0.03985277     0.01200
C2410       C  0.88904013  0.63359042  0.05041569     0.04000
C2411       C  0.90110579  0.63436679  0.06320741    -0.12100
C2412       C  0.91059548  0.64897379  0.06565359     0.23300
C2413       C  0.90761330  0.66314522  0.05577018    -0.12600
C2414       C  0.89542582  0.66268444  0.04307713     0.04700
C2415       C  0.92433618  0.64913393  0.07810940     0.27100
C2416       C  0.92148170  0.65444178  0.09468676    -0.13300
C2417       C  0.93455593  0.65427338  0.10645333     0.05200
C2418       C  0.95041773  0.64826547  0.10176710    -0.09300
C2419       C  0.95339427  0.64382864  0.08495509     0.06000
C2420       C  0.94038489  0.64411047  0.07320714    -0.13600
Br2421     Br  0.92074949  0.68315668  0.05957018    -0.05700
Br2422     Br  0.87645538  0.61298544  0.04830277    -0.00100
Br2423     Br  0.93060730  0.66232171  0.12889290     0.00400
Br2424     Br  0.94447814  0.63758507  0.05030817    -0.04100
Br2425     Br  0.89226176  0.68295209  0.03028794     0.00500
Br2426     Br  0.90494977  0.61530206  0.07754247    -0.03300
Br2427     Br  0.89954393  0.66165916  0.10122214    -0.04200
Br2428     Br  0.97561519  0.63879736  0.07762765    -0.00200
C2429       C  0.02436418  0.64865805  0.90213887     0.01200
C2430       C  0.02038083  0.65597926  0.91769801     0.04000
C2431       C  0.03236310  0.65661294  0.93053290    -0.12100
C2432       C  0.04829435  0.64976000  0.92790999     0.23300
C2433       C  0.05217547  0.64218510  0.91244410    -0.12600
C2434       C  0.04029633  0.64181020  0.89950936     0.04700
C2435       C  0.06106905  0.65069774  0.94132192     0.27100
C2436       C  0.07245454  0.66413201  0.94174751    -0.13300
C2437       C  0.08524345  0.66456684  0.95381725     0.05200
C2438       C  0.08628015  0.65182655  0.96607888    -0.09300
C2439       C  0.07397983  0.63900141  0.96625099     0.06000
C2440       C  0.06181932  0.63817591  0.95359682    -0.13600
Br2441     Br  0.07376647  0.63223082  0.90909784    -0.05700
Br2442     Br  0.99832412  0.66465180  0.92158403    -0.00100
Br2443     Br  0.10152474  0.68238948  0.95276122     0.00400
Br2444     Br  0.04608249  0.61983160  0.95294388    -0.04100
Br2445     Br  0.04607004  0.63259261  0.87793459     0.00500
Br2446     Br  0.02702999  0.66680925  0.95176731    -0.03300
Br2447     Br  0.07034888  0.68197630  0.92566302    -0.04200
Br2448     Br  0.07259743  0.62317855  0.98445180    -0.00200
C2449       C  0.95357949  0.64975663  0.90228859     0.01200
C2450       C  0.95266827  0.63646200  0.91405977     0.04000
C2451       C  0.94031269  0.63642566  0.92654564    -0.12100
C2452       C  0.92889603  0.64969157  0.92774264     0.23300
C2453       C  0.93028723  0.66342391  0.91685351    -0.12600
C2454       C  0.94271956  0.66367807  0.90439167     0.04700
C2455       C  0.91546644  0.64909005  0.94055565     0.27100
C2456       C  0.90137297  0.63884555  0.93790801    -0.13300
C2457       C  0.88915880  0.63730964  0.95043308     0.05200
C2458       C  0.89069702  0.64646924  0.96552131    -0.09300
C2459       C  0.90466082  0.65700086  0.96799822     0.06000
C2460       C  0.91708501  0.65814936  0.95564352    -0.13600
Br2461     Br  0.91480902  0.68181565  0.91895041    -0.05700
Br2462     Br  0.96907523  0.61876329  0.91449460    -0.00100
Br2463     Br  0.87004800  0.62308348  0.94650722     0.00400
Br2464     Br  0.93650612  0.67194864  0.95946330    -0.04100
Br2465     Br  0.94451562  0.68352278  0.89076668     0.00500
Br2466     Br  0.93895704  0.61814758  0.94228975    -0.03300
Br2467     Br  0.89876008  0.62709431  0.91691302    -0.04200
Br2468     Br  0.90728321  0.66931969  0.98864405    -0.00200
C2469       C  0.84982315  0.65852314  0.26516757     0.01200
C2470       C  0.84693459  0.65477899  0.28233288     0.04000
C2471       C  0.84729147  0.66750518  0.29457758    -0.12100
C2472       C  0.85005849  0.68422596  0.29002115     0.23300
C2473       C  0.85279181  0.68830093  0.27325173    -0.12600
C2474       C  0.85310742  0.67558796  0.26092898     0.04700
C2475       C  0.85047397  0.69735986  0.30320850     0.27100
C2476       C  0.83556254  0.70454625  0.30876204    -0.13300
C2477       C  0.83531719  0.71449830  0.32336255     0.05200
C2478       C  0.85051953  0.71907437  0.33156131    -0.09300
C2479       C  0.86509094  0.71015242  0.32671243     0.06000
C2480       C  0.86521592  0.70015379  0.31217580    -0.13600
Br2481     Br  0.85606014  0.71156907  0.26740371    -0.05700
Br2482     Br  0.84355228  0.63245371  0.29037405    -0.00100
Br2483     Br  0.81370972  0.71749871  0.33364249     0.00400
Br2484     Br  0.88543370  0.68918947  0.30496253    -0.04100
Br2485     Br  0.85816171  0.68251315  0.23853851     0.00500
Br2486     Br  0.84432907  0.66215566  0.31802222    -0.03300
Br2487     Br  0.81521918  0.69966100  0.29673136    -0.04200
Br2488     Br  0.88383680  0.70784593  0.34149287    -0.00200
C2489       C  0.87395845  0.62673065  0.21506341     0.01200
C2490       C  0.88251064  0.61171882  0.21088339     0.04000
C2491       C  0.89796831  0.61257679  0.20267052    -0.12100
C2492       C  0.90386664  0.62803382  0.19667036     0.23300
C2493       C  0.89372859  0.64228659  0.19769924    -0.12600
C2494       C  0.87850469  0.64145837  0.20621975     0.04700
C2495       C  0.91980004  0.62904477  0.18751523     0.27100
C2496       C  0.93406558  0.63553348  0.19548699    -0.13300
C2497       C  0.94880061  0.63796488  0.18631619     0.05200
C2498       C  0.94941267  0.63344718  0.16927524    -0.09300
C2499       C  0.93528274  0.62611967  0.16156671     0.06000
C2500       C  0.92038843  0.62443090  0.17053949    -0.13600
Br2501     Br  0.90070341  0.66292531  0.18718714    -0.05700
Br2502     Br  0.87127888  0.59024558  0.21083043    -0.00100
Br2503     Br  0.96824796  0.64673935  0.19732668     0.00400
Br2504     Br  0.90049595  0.61653038  0.15939029    -0.04100
Br2505     Br  0.86311029  0.65968458  0.20331619     0.00500
Br2506     Br  0.91089249  0.59250610  0.19916537    -0.03300
Br2507     Br  0.93319474  0.64127944  0.21892959    -0.04200
Br2508     Br  0.93590464  0.61863444  0.13855367    -0.00200
C2509       C  0.84417438  0.60184354  0.26602001     0.01200
C2510       C  0.85872569  0.59616292  0.27443825     0.04000
C2511       C  0.85774232  0.58302660  0.28602716    -0.12100
C2512       C  0.84222712  0.57620921  0.29031220     0.23300
C2513       C  0.82759489  0.58286035  0.28343918    -0.12600
C2514       C  0.82845342  0.59565745  0.27137612     0.04700
C2515       C  0.84130398  0.56208677  0.30221836     0.27100
C2516       C  0.84002909  0.54553102  0.29612087    -0.13300
C2517       C  0.83886866  0.53209765  0.30736780     0.05200
C2518       C  0.83943605  0.53518705  0.32469971    -0.09300
C2519       C  0.84160861  0.55164921  0.33077773     0.06000
C2520       C  0.84205349  0.56515230  0.31956382    -0.13600
Br2521     Br  0.80632466  0.57427078  0.29080813    -0.05700
Br2522     Br  0.87984267  0.60777995  0.27236556    -0.00100
Br2523     Br  0.83727957  0.50939461  0.29907973     0.00400
Br2524     Br  0.84347257  0.58786141  0.32789098    -0.04100
Br2525     Br  0.80775249  0.60468559  0.26337042     0.00500
Br2526     Br  0.87770763  0.57426292  0.29619787    -0.03300
Br2527     Br  0.84009608  0.54134334  0.27234467    -0.04200
Br2528     Br  0.84431796  0.55565112  0.35440992    -0.00200
C2529       C  0.16263118  0.62273705  0.23037846     0.01200
C2530       C  0.17589400  0.63285743  0.23659252     0.04000
C2531       C  0.18931774  0.63704428  0.22598160    -0.12100
C2532       C  0.19045725  0.62978960  0.20997106     0.23300
C2533       C  0.17944674  0.61687339  0.20543984    -0.12600
C2534       C  0.16582589  0.61307204  0.21573815     0.04700
C2535       C  0.20247811  0.63606792  0.19735579     0.27100
C2536       C  0.19706259  0.64766445  0.18541969    -0.13300
C2537       C  0.20691106  0.65113611  0.17131880     0.05200
C2538       C  0.22227645  0.64267646  0.16874784    -0.09300
C2539       C  0.22879727  0.63319624  0.18238738     0.06000
C2540       C  0.21857473  0.62940473  0.19623792    -0.13600
Br2541     Br  0.18256602  0.60510743  0.18449010    -0.05700
Br2542     Br  0.17782203  0.63904807  0.25981303    -0.00100
Br2543     Br  0.19938917  0.66847002  0.15635296     0.00400
Br2544     Br  0.22611869  0.61428689  0.21345137    -0.04100
Br2545     Br  0.15217953  0.59400568  0.20980930     0.00500
Br2546     Br  0.20587399  0.65316848  0.23300258    -0.03300
Br2547     Br  0.17557111  0.65815841  0.18815851    -0.04200
Br2548     Br  0.25153287  0.62558891  0.18362839    -0.00200
C2549       C  0.10084377  0.62650449  0.21856960     0.01200
C2550       C  0.09932277  0.64091333  0.20815574     0.04000
C2551       C  0.08501315  0.64319539  0.19822727    -0.12100
C2552       C  0.07219396  0.63117852  0.19835724     0.23300
C2553       C  0.07441172  0.61614391  0.20711535    -0.12600
C2554       C  0.08925433  0.61323350  0.21593136     0.04700
C2555       C  0.05702331  0.63357977  0.18802936     0.27100
C2556       C  0.04360949  0.64303568  0.19423969    -0.13300
C2557       C  0.02908071  0.64497245  0.18456664     0.05200
C2558       C  0.02773374  0.63708603  0.16874099    -0.09300
C2559       C  0.04145880  0.62796428  0.16240124     0.06000
C2560       C  0.05600611  0.62622960  0.17202827    -0.13600
Br2561     Br  0.05709718  0.59928386  0.20671959    -0.05700
Br2562     Br  0.11707997  0.65728636  0.20629631    -0.00100
Br2563     Br  0.01110076  0.65826581  0.19331357     0.00400
Br2564     Br  0.07476110  0.61391328  0.16327261    -0.04100
Br2565     Br  0.09524129  0.59006011  0.21891569     0.00500
Br2566     Br  0.08279384  0.66282593  0.18436631    -0.03300
Br2567     Br  0.04521066  0.65314533  0.21615976    -0.04200
Br2568     Br  0.04105159  0.61880975  0.13998541    -0.00200
C2569       C  0.12826887  0.59903608  0.27018476     0.01200
C2570       C  0.12879035  0.58199160  0.26504330     0.04000
C2571       C  0.12940487  0.56903233  0.27688510    -0.12100
C2572       C  0.12968336  0.57284684  0.29401873     0.23300
C2573       C  0.13011955  0.58966689  0.29932473    -0.12600
C2574       C  0.12961623  0.60273598  0.28750666     0.04700
C2575       C  0.12901910  0.55906346  0.30642765     0.27100
C2576       C  0.11355697  0.55269055  0.31150229    -0.13300
C2577       C  0.11265717  0.53944397  0.32306301     0.05200
C2578       C  0.12750417  0.53182980  0.32925805    -0.09300
C2579       C  0.14314416  0.53842137  0.32379274     0.06000
C2580       C  0.14374675  0.55210230  0.31269102    -0.13600
Br2581     Br  0.13115300  0.59461608  0.32296956    -0.05700
Br2582     Br  0.12977590  0.57591667  0.24180769    -0.00100
Br2583     Br  0.09059220  0.53283051  0.33026273     0.00400
Br2584     Br  0.16483604  0.56151008  0.30575514    -0.04100
Br2585     Br  0.13066634  0.62537946  0.29568950     0.00500
Br2586     Br  0.12978140  0.54583785  0.26975419    -0.03300
Br2587     Br  0.09349092  0.56233791  0.30230294    -0.04200
Br2588     Br  0.16428318  0.52908666  0.33063300    -0.00200
C2589       C  0.31391736  0.27220232  0.86780996     0.01200
C2590       C  0.30815934  0.27542446  0.85131507     0.04000
C2591       C  0.29760688  0.28918698  0.84815722    -0.12100
C2592       C  0.29009680  0.29784207  0.86153882     0.23300
C2593       C  0.29335373  0.29264408  0.87794175    -0.12600
C2594       C  0.30644886  0.28145936  0.88108045     0.04700
C2595       C  0.28029040  0.31346228  0.85879310     0.27100
C2596       C  0.28649887  0.32884966  0.86488651    -0.13300
C2597       C  0.27661036  0.34332179  0.86433869     0.05200
C2598       C  0.26173409  0.34355154  0.85468194    -0.09300
C2599       C  0.25589837  0.32806598  0.84788484     0.06000
C2600       C  0.26456185  0.31301519  0.85105715    -0.13600
Br2601     Br  0.28046026  0.30181398  0.89625520    -0.05700
Br2602     Br  0.31311092  0.26063804  0.83289353    -0.00100
Br2603     Br  0.28296538  0.36173424  0.87887450     0.00400
Br2604     Br  0.25466700  0.29164119  0.84528027    -0.04100
Br2605     Br  0.31560297  0.28236008  0.90317427     0.00500
Br2606     Br  0.29425219  0.29672513  0.82550650    -0.03300
Br2607     Br  0.30879206  0.33024230  0.87398934    -0.04200
Br2608     Br  0.23683614  0.32666992  0.83331786    -0.00200
C2609       C  0.37215882  0.27424148  0.86733784     0.01200
C2610       C  0.36976373  0.29137146  0.87106433     0.04000
C2611       C  0.38312117  0.30277085  0.86991183    -0.12100
C2612       C  0.39882844  0.29726388  0.86439923     0.23300
C2613       C  0.40116234  0.28028228  0.86015315    -0.12600
C2614       C  0.38799975  0.26873683  0.86198839     0.04700
C2615       C  0.41285649  0.30940587  0.86319148     0.27100
C2616       C  0.41381354  0.32035904  0.84951537    -0.13300
C2617       C  0.42620353  0.33287013  0.84894856     0.05200
C2618       C  0.43847139  0.33394227  0.86170674    -0.09300
C2619       C  0.43761328  0.32252433  0.87531098     0.06000
C2620       C  0.42472347  0.31051771  0.87608127    -0.13600
Br2621     Br  0.42250364  0.27289580  0.85194911    -0.05700
Br2622     Br  0.34843834  0.29928609  0.87843227    -0.00100
Br2623     Br  0.42502874  0.34922567  0.83122392     0.00400
Br2624     Br  0.42308663  0.29554380  0.89494901    -0.04100
Br2625     Br  0.39193757  0.24533529  0.85742099     0.00500
Br2626     Br  0.38014086  0.32592304  0.87642482    -0.03300
Br2627     Br  0.39788610  0.31814072  0.83153712    -0.04200
Br2628     Br  0.45399431  0.32261096  0.89304422    -0.00200
C2629       C  0.35294601  0.23152327  0.11007623     0.01200
C2630       C  0.34794894  0.21475972  0.11321846     0.04000
C2631       C  0.34643690  0.20321052  0.09990064    -0.12100
C2632       C  0.35082229  0.20794492  0.08356637     0.23300
C2633       C  0.35523416  0.22465343  0.08024535    -0.12600
C2634       C  0.35556755  0.23653733  0.09327228     0.04700
C2635       C  0.35142683  0.19521371  0.06997475     0.27100
C2636       C  0.36505853  0.18422628  0.06887697    -0.13300
C2637       C  0.36559079  0.17189589  0.05624204     0.05200
C2638       C  0.35298351  0.17123316  0.04384747    -0.09300
C2639       C  0.33964834  0.18280089  0.04466739     0.06000
C2640       C  0.33861223  0.19430512  0.05802198    -0.13600
Br2641     Br  0.36150260  0.23107315  0.05784147    -0.05700
Br2642     Br  0.34426357  0.20668851  0.13555487    -0.00100
Br2643     Br  0.38316610  0.15541771  0.05690965     0.00400
Br2644     Br  0.31957099  0.20887097  0.06008987    -0.04100
Br2645     Br  0.35882101  0.25979435  0.08756909     0.00500
Br2646     Br  0.33877729  0.18060392  0.10393652    -0.03300
Br2647     Br  0.38313014  0.18627618  0.08470998    -0.04200
Br2648     Br  0.32322382  0.18394308  0.02705584    -0.00200
C2649       C  0.35168413  0.16943204  0.96889711     0.01200
C2650       C  0.34107098  0.16583889  0.95520625     0.04000
C2651       C  0.34007494  0.17702943  0.94170232    -0.12100
C2652       C  0.34990732  0.19163372  0.94159500     0.23300
C2653       C  0.36064112  0.19518082  0.95510026    -0.12600
C2654       C  0.36151372  0.18415078  0.96874983     0.04700
C2655       C  0.34875852  0.20352942  0.92745024     0.27100
C2656       C  0.35991635  0.20242032  0.91400491    -0.13300
C2657       C  0.35941161  0.21434749  0.90104008     0.05200
C2658       C  0.34734026  0.22746495  0.90122061    -0.09300
C2659       C  0.33827440  0.22973006  0.91631328     0.06000
C2660       C  0.33781717  0.21711243  0.92848665    -0.13600
Br2661     Br  0.37400340  0.21534639  0.95488647    -0.05700
Br2662     Br  0.32859984  0.14510449  0.95424738    -0.00100
Br2663     Br  0.37686373  0.21337142  0.88448585     0.00400
Br2664     Br  0.32282529  0.21893072  0.94730121    -0.04100
Br2665     Br  0.37568634  0.18972202  0.98748707     0.00500
Br2666     Br  0.32521003  0.17249656  0.92326457    -0.03300
Br2667     Br  0.37609278  0.18455079  0.91368580    -0.04200
Br2668     Br  0.33221253  0.25158041  0.92411485    -0.00200
C2669       C  0.35653151  0.09973644  0.04436108     0.01200
C2670       C  0.36699159  0.08559138  0.04326942     0.04000
C2671       C  0.36755464  0.07401745  0.05648325    -0.12100
C2672       C  0.35714160  0.07610153  0.07050222     0.23300
C2673       C  0.34663706  0.09017548  0.07159078    -0.12600
C2674       C  0.34659032  0.10215195  0.05873094     0.04700
C2675       C  0.35691624  0.06319750  0.08382984     0.27100
C2676       C  0.34830472  0.04800624  0.08119381    -0.13300
C2677       C  0.34858478  0.03545403  0.09346910     0.05200
C2678       C  0.35653655  0.03844576  0.10896600    -0.09300
C2679       C  0.36502388  0.05375539  0.11164826     0.06000
C2680       C  0.36550696  0.06594117  0.09896228    -0.13600
Br2681     Br  0.33215400  0.09290953  0.09064263    -0.05700
Br2682     Br  0.37978650  0.08140232  0.02327964    -0.00100
Br2683     Br  0.33891638  0.01377375  0.08850758     0.00400
Br2684     Br  0.37788124  0.08647546  0.10225305    -0.04100
Br2685     Br  0.33350396  0.12228845  0.06130070     0.00500
Br2686     Br  0.38259279  0.05521604  0.05546652    -0.03300
Br2687     Br  0.33582633  0.04456094  0.06082343    -0.04200
Br2688     Br  0.37523294  0.05856590  0.13292739    -0.00200
C2689       C  0.34698886  0.03998462  0.18108373     0.01200
C2690       C  0.33139768  0.04354187  0.18878208     0.04000
C2691       C  0.32960287  0.05763158  0.19934033    -0.12100
C2692       C  0.34315994  0.06836104  0.20238571     0.23300
C2693       C  0.35869022  0.06488915  0.19516288    -0.12600
C2694       C  0.36078624  0.05068601  0.18483101     0.04700
C2695       C  0.34139837  0.08290822  0.21392450     0.27100
C2696       C  0.33499715  0.09822531  0.20817040    -0.13300
C2697       C  0.33426766  0.11228014  0.21893760     0.05200
C2698       C  0.34124520  0.11137305  0.23525880    -0.09300
C2699       C  0.34573630  0.09529654  0.24145405     0.06000
C2700       C  0.34608070  0.08129006  0.23074124    -0.13600
Br2701     Br  0.37712104  0.07997942  0.19947597    -0.05700
Br2702     Br  0.31229669  0.02899112  0.18605551    -0.00100
Br2703     Br  0.32253682  0.13173892  0.21101137     0.00400
Br2704     Br  0.35327754  0.05975793  0.23896770    -0.04100
Br2705     Br  0.38293276  0.04663683  0.17625768     0.00500
Br2706     Br  0.30852164  0.06235789  0.20995293    -0.03300
Br2707     Br  0.32769702  0.09992565  0.18522748    -0.04200
Br2708     Br  0.34965684  0.09167146  0.26507895    -0.00200
C2709       C  0.38321044  0.86613112  0.27780997     0.01200
C2710       C  0.38638041  0.85416836  0.29053466     0.04000
C2711       C  0.40069482  0.85542512  0.30060242    -0.12100
C2712       C  0.41264106  0.86787643  0.29742350     0.23300
C2713       C  0.41085603  0.87822828  0.28341335    -0.12600
C2714       C  0.39689424  0.87644141  0.27288719     0.04700
C2715       C  0.42800733  0.86854655  0.30769006     0.27100
C2716       C  0.42837753  0.87808476  0.32251698    -0.13300
C2717       C  0.44201460  0.87683991  0.33348864     0.05200
C2718       C  0.45550482  0.86619187  0.32946884    -0.09300
C2719       C  0.45556970  0.85755196  0.31400631     0.06000
C2720       C  0.44178222  0.85861362  0.30323530    -0.13600
Br2721     Br  0.42800958  0.89441337  0.27832299    -0.05700
Br2722     Br  0.37321962  0.83412702  0.29246677    -0.00100
Br2723     Br  0.44137700  0.88882598  0.35451826     0.00400
Br2724     Br  0.44146950  0.84608516  0.28252641    -0.04100
Br2725     Br  0.39992620  0.88347454  0.24997014     0.00500
Br2726     Br  0.40427518  0.83979663  0.31865925    -0.03300
Br2727     Br  0.40985324  0.89245318  0.32790985    -0.04200
Br2728     Br  0.47471269  0.84460480  0.30723631    -0.00200
C2729       C  0.31927958  0.86434394  0.28254151     0.01200
C2730       C  0.30625003  0.87595833  0.27969441     0.04000
C2731       C  0.29101936  0.87451816  0.28837530    -0.12100
C2732       C  0.28912799  0.86255902  0.30113381     0.23300
C2733       C  0.30207278  0.85118562  0.30426798    -0.12600
C2734       C  0.31661125  0.85148452  0.29445575     0.04700
C2735       C  0.27411449  0.86268665  0.31210273     0.27100
C2736       C  0.27245936  0.87528534  0.32438088    -0.13300
C2737       C  0.25882351  0.87514537  0.33539135     0.05200
C2738       C  0.24700435  0.86187425  0.33473707    -0.09300
C2739       C  0.24880598  0.84915523  0.32256039     0.06000
C2740       C  0.26205935  0.84981215  0.31100272    -0.13600
Br2741     Br  0.30009225  0.83548325  0.32252108    -0.05700
Br2742     Br  0.30924064  0.89486761  0.26512425    -0.00100
Br2743     Br  0.25767798  0.89233328  0.35255843     0.00400
Br2744     Br  0.26370114  0.83316663  0.29350586    -0.04100
Br2745     Br  0.33184316  0.83316154  0.29672203     0.00500
Br2746     Br  0.27265598  0.88911758  0.28304709    -0.03300
Br2747     Br  0.28942317  0.89239243  0.32664915    -0.04200
Br2748     Br  0.23311007  0.83087844  0.32154874    -0.00200
C2749       C  0.34285689  0.89736826  0.23935201     0.01200
C2750       C  0.33627916  0.89485757  0.22298076     0.04000
C2751       C  0.33578740  0.90826692  0.21151529    -0.12100
C2752       C  0.34251568  0.92399669  0.21583496     0.23300
C2753       C  0.34802285  0.92688716  0.23227806    -0.12600
C2754       C  0.34718492  0.91400044  0.24421281     0.04700
C2755       C  0.34367134  0.93756437  0.20312964     0.27100
C2756       C  0.35625586  0.93713718  0.19086852    -0.13300
C2757       C  0.35742180  0.95000483  0.17890598     0.05200
C2758       C  0.34662133  0.96396263  0.17972138    -0.09300
C2759       C  0.33394683  0.96427380  0.19199228     0.06000
C2760       C  0.33225737  0.95092749  0.20335563    -0.13600
Br2761     Br  0.35742386  0.94841397  0.23826400    -0.05700
Br2762     Br  0.32804727  0.87350903  0.21523147    -0.00100
Br2763     Br  0.37305959  0.94771259  0.16070987     0.00400
Br2764     Br  0.31420045  0.95080128  0.21926363    -0.04100
Br2765     Br  0.35060072  0.91984960  0.26747553     0.00500
Br2766     Br  0.32616683  0.90519061  0.18954138    -0.03300
Br2767     Br  0.37202862  0.91892250  0.19060156    -0.04200
Br2768     Br  0.31927887  0.98326761  0.19400635    -0.00200
C2769       C  0.35205804  0.04675049  0.89723132     0.01200
C2770       C  0.34331988  0.06204542  0.89779276     0.04000
C2771       C  0.34418316  0.07229026  0.91213104    -0.12100
C2772       C  0.35426406  0.06758743  0.92574160     0.23300
C2773       C  0.36359429  0.05267967  0.92490279    -0.12600
C2774       C  0.36233977  0.04215762  0.91077032     0.04700
C2775       C  0.35511296  0.07843786  0.94085412     0.27100
C2776       C  0.36492570  0.09308976  0.94068311    -0.13300
C2777       C  0.36487244  0.10403488  0.95451219     0.05200
C2778       C  0.35558220  0.09997295  0.96893808    -0.09300
C2779       C  0.34617977  0.08500142  0.96930188     0.06000
C2780       C  0.34574290  0.07439706  0.95518300    -0.13600
Br2781     Br  0.37792505  0.04664463  0.94326942    -0.05700
Br2782     Br  0.33067743  0.06928756  0.87862625    -0.00100
Br2783     Br  0.37651399  0.12521018  0.95298598     0.00400
Br2784     Br  0.33208282  0.05445348  0.95530429    -0.04100
Br2785     Br  0.37394025  0.02099485  0.91049988     0.00500
Br2786     Br  0.33128523  0.09264179  0.91331767    -0.03300
Br2787     Br  0.37832269  0.09819772  0.92133060    -0.04200
Br2788     Br  0.33431845  0.07868639  0.98930039    -0.00200
C2789       C  0.35940275  0.91548982  0.03490386     0.01200
C2790       C  0.34969591  0.93021141  0.03527450     0.04000
C2791       C  0.34977422  0.94055869  0.04959242    -0.12100
C2792       C  0.35973182  0.93637771  0.06345526     0.23300
C2793       C  0.36982110  0.92201225  0.06290485    -0.12600
C2794       C  0.36954240  0.91147814  0.04876811     0.04700
C2795       C  0.35938105  0.94694329  0.07875476     0.27100
C2796       C  0.36996953  0.96096206  0.08015230    -0.13300
C2797       C  0.36909783  0.97143631  0.09432894     0.05200
C2798       C  0.35764898  0.96781702  0.10725779    -0.09300
C2799       C  0.34762862  0.95327932  0.10616172     0.06000
C2800       C  0.34845455  0.94291769  0.09190171    -0.13600
Br2801     Br  0.38388363  0.91673934  0.08171640    -0.05700
Br2802     Br  0.33681106  0.93661761  0.01597743    -0.00100
Br2803     Br  0.38306082  0.99117721  0.09539729     0.00400
Br2804     Br  0.33465097  0.92312922  0.09028166    -0.04100
Br2805     Br  0.38230783  0.89098718  0.04906235     0.00500
Br2806     Br  0.33618833  0.96045714  0.05037510    -0.03300
Br2807     Br  0.38558052  0.96578023  0.06247682    -0.04200
Br2808     Br  0.33331514  0.94705983  0.12450569    -0.00200
C2809       C  0.35633428  0.91600237  0.95961793     0.01200
C2810       C  0.34712257  0.91224638  0.94504553     0.04000
C2811       C  0.34579793  0.92419262  0.93230560    -0.12100
C2812       C  0.35391138  0.93976065  0.93398701     0.23300
C2813       C  0.36345568  0.94339048  0.94832439    -0.12600
C2814       C  0.36455317  0.93156137  0.96123166     0.04700
C2815       C  0.35213118  0.95242319  0.92074538     0.27100
C2816       C  0.36236366  0.95169653  0.90653172    -0.13300
C2817       C  0.36002187  0.96314086  0.89347454     0.05200
C2818       C  0.34827872  0.97622611  0.89522856    -0.09300
C2819       C  0.33852020  0.97729973  0.90991727     0.06000
C2820       C  0.33997996  0.96496939  0.92228292    -0.13600
Br2821     Br  0.37486330  0.96464456  0.95022466    -0.05700
Br2822     Br  0.33677721  0.89052166  0.94220294    -0.00100
Br2823     Br  0.37231897  0.95998928  0.87293823     0.00400
Br2824     Br  0.32523698  0.96506472  0.94133561    -0.04100
Br2825     Br  0.37650217  0.93706151  0.98146589     0.00500
Br2826     Br  0.33273650  0.91939806  0.91257162    -0.03300
Br2827     Br  0.37963621  0.93498107  0.90509745    -0.04200
Br2828     Br  0.32404727  0.99619519  0.91403635    -0.00200
C2829       C  0.59466468  0.28122705  0.12956892     0.01200
C2830       C  0.58644059  0.28793726  0.11524056     0.04000
C2831       C  0.57164832  0.29716036  0.11708197    -0.12100
C2832       C  0.56609073  0.30182015  0.13304061     0.23300
C2833       C  0.57532758  0.29733141  0.14718221    -0.12600
C2834       C  0.58998110  0.28792094  0.14539068     0.04700
C2835       C  0.55246963  0.31414140  0.13473973     0.27100
C2836       C  0.55627652  0.33141078  0.13459709    -0.13300
C2837       C  0.54350926  0.34326845  0.13628984     0.05200
C2838       C  0.52695810  0.33790091  0.13835818    -0.09300
C2839       C  0.52323808  0.32063372  0.13914000     0.06000
C2840       C  0.53594663  0.30874456  0.13695238    -0.13600
Br2841     Br  0.56829003  0.30508758  0.16900132    -0.05700
Br2842     Br  0.59709216  0.28927529  0.09357896    -0.00100
Br2843     Br  0.54879786  0.36684738  0.13670918     0.00400
Br2844     Br  0.53087885  0.28509624  0.13711355    -0.04100
Br2845     Br  0.60521082  0.28844648  0.16388243     0.00500
Br2846     Br  0.55933212  0.30442777  0.09767039    -0.03300
Br2847     Br  0.57909209  0.33876246  0.13247951    -0.04200
Br2848     Br  0.50093079  0.31327525  0.14402592    -0.00200
C2849       C  0.63871084  0.04389085  0.08986630     0.01200
C2850       C  0.62944344  0.04284402  0.07488707     0.04000
C2851       C  0.62976110  0.05613191  0.06339128    -0.12100
C2852       C  0.63952169  0.07046189  0.06662580     0.23300
C2853       C  0.64893898  0.07154969  0.08141873    -0.12600
C2854       C  0.64859793  0.05830436  0.09301108     0.04700
C2855       C  0.63982519  0.08428281  0.05428391     0.27100
C2856       C  0.65145772  0.08404227  0.04114529    -0.13300
C2857       C  0.65046364  0.09592626  0.02822407     0.05200
C2858       C  0.63792258  0.10833529  0.02857163    -0.09300
C2859       C  0.62676021  0.10898556  0.04226157     0.06000
C2860       C  0.62771863  0.09695268  0.05501811    -0.13600
Br2861     Br  0.66202875  0.09141345  0.08582247    -0.05700
Br2862     Br  0.61705416  0.02287044  0.06943558    -0.00100
Br2863     Br  0.66558820  0.09418261  0.00955082     0.00400
Br2864     Br  0.61232432  0.09759975  0.07352498    -0.04100
Br2865     Br  0.66120181  0.06044686  0.11348113     0.00500
Br2866     Br  0.61674845  0.05484916  0.04310672    -0.03300
Br2867     Br  0.66852327  0.06707348  0.04078427    -0.04200
Br2868     Br  0.61031180  0.12655178  0.04405211    -0.00200
C2869       C  0.63042599  0.17877590  0.02758694     0.01200
C2870       C  0.63858542  0.17554632  0.04284859     0.04000
C2871       C  0.63770080  0.18725295  0.05602273    -0.12100
C2872       C  0.62872255  0.20225024  0.05396567     0.23300
C2873       C  0.62066334  0.20553151  0.03867357    -0.12600
C2874       C  0.62146128  0.19377606  0.02551767     0.04700
C2875       C  0.62736925  0.21430325  0.06809823     0.27100
C2876       C  0.61333441  0.21387465  0.07856230    -0.13300
C2877       C  0.61215865  0.22492616  0.09227601     0.05200
C2878       C  0.62513589  0.23661639  0.09564043    -0.09300
C2879       C  0.63929378  0.23680447  0.08513267     0.06000
C2880       C  0.64031673  0.22576200  0.07137502    -0.13600
Br2881     Br  0.60849518  0.22612919  0.03585045    -0.05700
Br2882     Br  0.65029556  0.15470370  0.04604262    -0.00100
Br2883     Br  0.59329077  0.22267634  0.10713078     0.00400
Br2884     Br  0.65944982  0.22628487  0.05679632    -0.04100
Br2885     Br  0.61064722  0.19837665  0.00449358     0.00500
Br2886     Br  0.64847949  0.18265487  0.07707475    -0.03300
Br2887     Br  0.59586025  0.19774160  0.07418816    -0.04200
Br2888     Br  0.65731222  0.25229464  0.08898406    -0.00200
C2889       C  0.62570756  0.17815986  0.95369656     0.01200
C2890       C  0.63630656  0.19234138  0.95260853     0.04000
C2891       C  0.63425177  0.20397488  0.93958872    -0.12100
C2892       C  0.62104495  0.20215151  0.92813634     0.23300
C2893       C  0.60995043  0.18855327  0.92964806    -0.12600
C2894       C  0.61256070  0.17629481  0.94198358     0.04700
C2895       C  0.61943711  0.21407532  0.91397434     0.27100
C2896       C  0.61337281  0.23032320  0.91669198    -0.13300
C2897       C  0.61357776  0.24215696  0.90367313     0.05200
C2898       C  0.61807986  0.23745274  0.88709099    -0.09300
C2899       C  0.62405085  0.22077861  0.88455483     0.06000
C2900       C  0.62500761  0.20941509  0.89799903    -0.13600
Br2901     Br  0.59121748  0.18672647  0.91460560    -0.05700
Br2902     Br  0.65321153  0.19662070  0.96929184    -0.00100
Br2903     Br  0.60989568  0.26514987  0.90979009     0.00400
Br2904     Br  0.63402596  0.18712832  0.89471433    -0.04100
Br2905     Br  0.59870410  0.15642848  0.94169979     0.00500
Br2906     Br  0.64976799  0.22236103  0.93717268    -0.03300
Br2907     Br  0.60473216  0.23626624  0.93847769    -0.04200
Br2908     Br  0.63096336  0.21226800  0.86318570    -0.00200
C2909       C  0.58498789  0.28158375  0.85414286     0.01200
C2910       C  0.58042025  0.29142757  0.86832404     0.04000
C2911       C  0.56517316  0.30005097  0.86882773    -0.12100
C2912       C  0.55488876  0.30050759  0.85467554     0.23300
C2913       C  0.56016127  0.29265946  0.83983628    -0.12600
C2914       C  0.57554812  0.28412271  0.83921909     0.04700
C2915       C  0.54017717  0.31184144  0.85464491     0.27100
C2916       C  0.52431800  0.30593520  0.85934901    -0.13300
C2917       C  0.51077772  0.31713267  0.86040296     0.05200
C2918       C  0.51303961  0.33425650  0.85670619    -0.09300
C2919       C  0.52880557  0.34000492  0.85144969     0.06000
C2920       C  0.54234679  0.32889612  0.85060784    -0.13600
Br2921     Br  0.54655449  0.29459126  0.82002742    -0.05700
Br2922     Br  0.59612530  0.29645470  0.88583469    -0.00100
Br2923     Br  0.48900145  0.30894925  0.86623563     0.00400
Br2924     Br  0.56406389  0.33708191  0.84421080    -0.04100
Br2925     Br  0.58519636  0.28137018  0.81722864     0.00500
Br2926     Br  0.55855645  0.31206753  0.88879251    -0.03300
Br2927     Br  0.52128013  0.28251789  0.86435546    -0.04200
Br2928     Br  0.53199879  0.36316720  0.84542776    -0.00200
C2929       C  0.63504637  0.90112701  0.03287792     0.01200
C2930       C  0.64476729  0.91565249  0.03022720     0.04000
C2931       C  0.64574351  0.92811189  0.04267686    -0.12100
C2932       C  0.63717180  0.92606802  0.05787370     0.23300
C2933       C  0.62777718  0.91142704  0.06073208    -0.12600
C2934       C  0.62654214  0.89904384  0.04819696     0.04700
C2935       C  0.63703077  0.93998948  0.07021756     0.27100
C2936       C  0.65039914  0.94227445  0.08130789    -0.13300
C2937       C  0.65088117  0.95634012  0.09204709     0.05200
C2938       C  0.63758617  0.96811226  0.09208940    -0.09300
C2939       C  0.62402214  0.96544136  0.08088084     0.06000
C2940       C  0.62388195  0.95151096  0.07003217    -0.13600
Br2941     Br  0.61651980  0.90850866  0.08182547    -0.05700
Br2942     Br  0.65588581  0.91915780  0.00912391    -0.00100
Br2943     Br  0.66991986  0.95867690  0.10662445     0.00400
Br2944     Br  0.60569423  0.94816680  0.05448036    -0.04100
Br2945     Br  0.61342542  0.87914042  0.05229845     0.00500
Br2946     Br  0.65840505  0.94833896  0.03878646    -0.03300
Br2947     Br  0.66801688  0.92584109  0.08169025    -0.04200
Br2948     Br  0.60553671  0.98081443  0.07926588    -0.00200
C2949       C  0.63498426  0.10465524  0.95595970     0.01200
C2950       C  0.64241782  0.10699647  0.94016433     0.04000
C2951       C  0.64351139  0.09348118  0.92882760    -0.12100
C2952       C  0.63688688  0.07769322  0.93310429     0.23300
C2953       C  0.62975162  0.07526529  0.94898529    -0.12600
C2954       C  0.62880373  0.08870241  0.96040126     0.04700
C2955       C  0.63591062  0.06413576  0.92035226     0.27100
C2956       C  0.62237861  0.06374970  0.90921692    -0.13300
C2957       C  0.62121143  0.05109897  0.89695864     0.05200
C2958       C  0.63331861  0.03820648  0.89616859    -0.09300
C2959       C  0.64682335  0.03855775  0.90761400     0.06000
C2960       C  0.64819901  0.05164703  0.91945793    -0.13600
Br2961     Br  0.62106845  0.05351256  0.95493111    -0.05700
Br2962     Br  0.65000302  0.12897685  0.93356508    -0.00100
Br2963     Br  0.60339766  0.05245577  0.88076375     0.00400
Br2964     Br  0.66687685  0.05257109  0.93461376    -0.04100
Br2965     Br  0.61932728  0.08509576  0.98227200     0.00500
Br2966     Br  0.65379187  0.09654868  0.90726656    -0.03300
Br2967     Br  0.60533975  0.08072723  0.91092064    -0.04200
Br2968     Br  0.66316617  0.02083786  0.90795752    -0.00200
C2969       C  0.63119872  0.90060522  0.95886027     0.01200
C2970       C  0.61585165  0.90745646  0.95291822     0.04000
C2971       C  0.61574015  0.91948040  0.93998354    -0.12100
C2972       C  0.63069906  0.92557546  0.93326935     0.23300
C2973       C  0.64589618  0.91924564  0.93909532    -0.12600
C2974       C  0.64627333  0.90659204  0.95140743     0.04700
C2975       C  0.63045113  0.93891446  0.92021488     0.27100
C2976       C  0.63140814  0.93461665  0.90311015    -0.13300
C2977       C  0.63137862  0.94726684  0.89084292     0.05200
C2978       C  0.62989094  0.96424607  0.89556926    -0.09300
C2979       C  0.62872072  0.96853942  0.91263892     0.06000
C2980       C  0.62928175  0.95594018  0.92493384    -0.13600
Br2981     Br  0.66633786  0.92836309  0.93012783    -0.05700
Br2982     Br  0.59441678  0.90123293  0.96206511    -0.00100
Br2983     Br  0.63331102  0.94137936  0.86752142     0.00400
Br2984     Br  0.62871591  0.96194682  0.94830790    -0.04100
Br2985     Br  0.66798567  0.89791977  0.95721422     0.00500
Br2986     Br  0.59495710  0.92783163  0.93115351    -0.03300
Br2987     Br  0.63264757  0.91135800  0.89654491    -0.04200
Br2988     Br  0.62644781  0.99173492  0.91914859    -0.00200
C2989       C  0.63386931  0.97304030  0.16490338     0.01200
C2990       C  0.64603669  0.96033651  0.16687266     0.04000
C2991       C  0.64445333  0.94840803  0.17972799    -0.12100
C2992       C  0.63085087  0.94905827  0.19074374     0.23300
C2993       C  0.61893423  0.96182464  0.18912512    -0.12600
C2994       C  0.62048975  0.97388718  0.17643362     0.04700
C2995       C  0.62880153  0.93612697  0.20389796     0.27100
C2996       C  0.61947297  0.92158723  0.20051537    -0.13300
C2997       C  0.61664053  0.90975185  0.21320845     0.05200
C2998       C  0.62485392  0.91134195  0.22895318    -0.09300
C2999       C  0.63177133  0.92726652  0.23288511     0.06000
C3000       C  0.63444811  0.93923008  0.22025072    -0.13600
Br3001     Br  0.60029802  0.96256911  0.20434811    -0.05700
Br3002     Br  0.66470081  0.95849682  0.15183453    -0.00100
Br3003     Br  0.59950087  0.89307774  0.20939461     0.00400
Br3004     Br  0.64559362  0.96012641  0.22533517    -0.04100
Br3005     Br  0.60461435  0.99205039  0.17581582     0.00500
Br3006     Br  0.66070232  0.93080106  0.18216320    -0.03300
Br3007     Br  0.61060548  0.91794855  0.17833791    -0.04200
Br3008     Br  0.63330890  0.93481027  0.25565117    -0.00200
C3009       C  0.59746609  0.87467298  0.27265222     0.01200
C3010       C  0.59831537  0.87709331  0.29011626     0.04000
C3011       C  0.58409534  0.87478041  0.30014578    -0.12100
C3012       C  0.56905459  0.86914908  0.29299269     0.23300
C3013       C  0.56825947  0.86610902  0.27563617    -0.12600
C3014       C  0.58230607  0.86914032  0.26546256     0.04700
C3015       C  0.55431094  0.86624285  0.30398091     0.27100
C3016       C  0.55333854  0.85156529  0.31364974    -0.13300
C3017       C  0.54091132  0.84982079  0.32597279     0.05200
C3018       C  0.52867587  0.86241689  0.32813429    -0.09300
C3019       C  0.52911961  0.87668597  0.31762743     0.06000
C3020       C  0.54208081  0.87872102  0.30589383    -0.13600
Br3021     Br  0.54785149  0.85787988  0.26587250    -0.05700
Br3022     Br  0.61877715  0.88388034  0.30052823    -0.00100
Br3023     Br  0.54180300  0.83070308  0.34068064     0.00400
Br3024     Br  0.54338749  0.89882519  0.29261770    -0.04100
Br3025     Br  0.58074962  0.86548124  0.24166401     0.00500
Br3026     Br  0.58496505  0.87990971  0.32375726    -0.03300
Br3027     Br  0.56937986  0.83394166  0.31006773    -0.04200
Br3028     Br  0.51169234  0.89329184  0.31861052    -0.00200
C3029       C  0.62994518  0.23246347  0.15274998     0.01200
C3030       C  0.62986876  0.23605944  0.17013876     0.04000
C3031       C  0.63066670  0.22308606  0.18197680    -0.12100
C3032       C  0.63310336  0.20644311  0.17675537     0.23300
C3033       C  0.63512181  0.20288217  0.15964607    -0.12600
C3034       C  0.63322996  0.21568513  0.14765052     0.04700
C3035       C  0.63241298  0.19263755  0.18921244     0.27100
C3036       C  0.64599711  0.18937783  0.19987833    -0.13300
C3037       C  0.64438878  0.17766732  0.21299465     0.05200
C3038       C  0.62930317  0.16877500  0.21511490    -0.09300
C3039       C  0.61667719  0.17049576  0.20287861     0.06000
C3040       C  0.61783431  0.18296499  0.19061619    -0.13600
Br3041     Br  0.64004760  0.18015474  0.15278516    -0.05700
Br3042     Br  0.63055235  0.25874700  0.17823477    -0.00100
Br3043     Br  0.66296556  0.17385930  0.22764159     0.00400
Br3044     Br  0.59914622  0.18713187  0.17602420    -0.04100
Br3045     Br  0.63467875  0.20932171  0.12452430     0.00500
Br3046     Br  0.62779197  0.22799990  0.20548213    -0.03300
Br3047     Br  0.66670155  0.20114877  0.19647120    -0.04200
Br3048     Br  0.59885907  0.15428891  0.20124053    -0.00200
C3049       C  0.62664815  0.11243470  0.22081533     0.01200
C3050       C  0.62187977  0.09601824  0.22596411     0.04000
C3051       C  0.62271500  0.08233037  0.21476236    -0.12100
C3052       C  0.62950190  0.08443884  0.19874543     0.23300
C3053       C  0.63544289  0.10024392  0.19388930    -0.12600
C3054       C  0.63369740  0.11423757  0.20456442     0.04700
C3055       C  0.63019070  0.07020970  0.18667594     0.27100
C3056       C  0.64284267  0.05809493  0.18785712    -0.13300
C3057       C  0.64410160  0.04529679  0.17572278     0.05200
C3058       C  0.63329758  0.04514412  0.16172587    -0.09300
C3059       C  0.62081810  0.05757939  0.16045916     0.06000
C3060       C  0.61888911  0.06959734  0.17323229    -0.13600
Br3061     Br  0.64580879  0.10259020  0.17215163    -0.05700
Br3062     Br  0.61537708  0.09134111  0.24866854    -0.00100
Br3063     Br  0.66015248  0.02762716  0.17900799     0.00400
Br3064     Br  0.60077760  0.08543988  0.17234145    -0.04100
Br3065     Br  0.64041721  0.13548463  0.19553074     0.00500
Br3066     Br  0.61422181  0.06058159  0.22113723    -0.03300
Br3067     Br  0.65862378  0.05925521  0.20603098    -0.04200
Br3068     Br  0.60707453  0.05928050  0.14069496    -0.00200
C3069       C  0.59140453  0.14653733  0.26167418     0.01200
C3070       C  0.57734993  0.15644020  0.25697177     0.04000
C3071       C  0.56400160  0.15890360  0.26818042    -0.12100
C3072       C  0.56343919  0.15018501  0.28333896     0.23300
C3073       C  0.57615458  0.13887507  0.28730749    -0.12600
C3074       C  0.58972931  0.13661561  0.27643308     0.04700
C3075       C  0.54857427  0.15114388  0.29434752     0.27100
C3076       C  0.54743569  0.16357781  0.30680014    -0.13300
C3077       C  0.53498848  0.16253947  0.31917714     0.05200
C3078       C  0.52396534  0.14859470  0.31949359    -0.09300
C3079       C  0.52425283  0.13704081  0.30594070     0.06000
C3080       C  0.53638275  0.13849681  0.29335245    -0.13600
Br3081     Br  0.57473370  0.12629312  0.30790406    -0.05700
Br3082     Br  0.57321895  0.16323888  0.23428008    -0.00100
Br3083     Br  0.53382030  0.18013587  0.33573767     0.00400
Br3084     Br  0.53667906  0.12295479  0.27474752    -0.04100
Br3085     Br  0.60479591  0.11849235  0.28167558     0.00500
Br3086     Br  0.54589200  0.17378559  0.26260794    -0.03300
Br3087     Br  0.56338821  0.18172236  0.30707587    -0.04200
Br3088     Br  0.50782249  0.11937448  0.30396046    -0.00200
C3089       C  0.58239177  0.46157010  0.86358307     0.01200
C3090       C  0.56699606  0.46445067  0.87150977     0.04000
C3091       C  0.55405547  0.45267542  0.86986392    -0.12100
C3092       C  0.55657457  0.43784581  0.86059502     0.23300
C3093       C  0.57207707  0.43475149  0.85300344    -0.12600
C3094       C  0.58493884  0.44668758  0.85435252     0.04700
C3095       C  0.54293797  0.42538809  0.85919870     0.27100
C3096       C  0.54078918  0.41340138  0.87179609    -0.13300
C3097       C  0.52727445  0.40218782  0.87114904     0.05200
C3098       C  0.51544286  0.40314976  0.85793337    -0.09300
C3099       C  0.51838353  0.41462288  0.84470679     0.06000
C3100       C  0.53197395  0.42580194  0.84552393    -0.13600
Br3101     Br  0.57565434  0.41404198  0.84099044    -0.05700
Br3102     Br  0.56338750  0.48476738  0.88419868    -0.00100
Br3103     Br  0.52628809  0.38477084  0.88791834     0.00400
Br3104     Br  0.53558711  0.44206239  0.82805527    -0.04100
Br3105     Br  0.60624611  0.44236782  0.84410932     0.00500
Br3106     Br  0.53276124  0.45682518  0.88020020    -0.03300
Br3107     Br  0.55655205  0.41251018  0.89003199    -0.04200
Br3108     Br  0.50425824  0.41548426  0.82521678    -0.00200
C3109       C  0.52455395  0.60252147  0.86848873     0.01200
C3110       C  0.53845914  0.60113832  0.85773047     0.04000
C3111       C  0.54908127  0.58712434  0.85874801    -0.12100
C3112       C  0.54616987  0.57452619  0.87069862     0.23300
C3113       C  0.53232164  0.57579275  0.88139563    -0.12600
C3114       C  0.52141217  0.58956894  0.88015236     0.04700
C3115       C  0.55769510  0.55992611  0.87181156     0.27100
C3116       C  0.55521723  0.54577432  0.86149938    -0.13300
C3117       C  0.56712459  0.53282659  0.86106950     0.05200
C3118       C  0.58149739  0.53374735  0.87127223    -0.09300
C3119       C  0.58333117  0.54741912  0.88249100     0.06000
C3120       C  0.57159104  0.56055055  0.88254866    -0.13600
Br3121     Br  0.52831062  0.55847663  0.89767765    -0.05700
Br3122     Br  0.54360492  0.61871453  0.84202869    -0.00100
Br3123     Br  0.56332461  0.51359881  0.84678337     0.00400
Br3124     Br  0.57470595  0.57975669  0.89698934    -0.04100
Br3125     Br  0.50155455  0.58991182  0.89374071     0.00500
Br3126     Br  0.56779154  0.58507655  0.84376534    -0.03300
Br3127     Br  0.53545861  0.54430259  0.84785431    -0.04200
Br3128     Br  0.60226249  0.54879426  0.89731124    -0.00200
C3129       C  0.45221574  0.61038624  0.86756040     0.01200
C3130       C  0.43767945  0.61538433  0.87615233     0.04000
C3131       C  0.42363873  0.60479640  0.87638113    -0.12100
C3132       C  0.42410554  0.58918695  0.86811155     0.23300
C3133       C  0.43852571  0.58425203  0.85941626    -0.12600
C3134       C  0.45252905  0.59484909  0.85905309     0.04700
C3135       C  0.40954009  0.57775293  0.86853573     0.27100
C3136       C  0.40792625  0.56606266  0.88152926    -0.13300
C3137       C  0.39529695  0.55379321  0.88093045     0.05200
C3138       C  0.38436731  0.55294658  0.86700587    -0.09300
C3139       C  0.38536632  0.56559245  0.85459649     0.06000
C3140       C  0.39792858  0.57789484  0.85541119    -0.13600
Br3141     Br  0.43903899  0.56281259  0.84811134    -0.05700
Br3142     Br  0.43658239  0.63710139  0.88688195    -0.00100
Br3143     Br  0.39371525  0.53814723  0.89919323     0.00400
Br3144     Br  0.39947663  0.59500474  0.83846851    -0.04100
Br3145     Br  0.47231419  0.58770715  0.84737540     0.00500
Br3146     Br  0.40364626  0.61164821  0.88782743    -0.03300
Br3147     Br  0.42348100  0.56671583  0.89994206    -0.04200
Br3148     Br  0.36916586  0.56695107  0.83675848    -0.00200
C3149       C  0.44501552  0.61199496  0.16213941     0.01200
C3150       C  0.44971667  0.59737978  0.17079591     0.04000
C3151       C  0.43886197  0.58350823  0.17130189    -0.12100
C3152       C  0.42323881  0.58433235  0.16336137     0.23300
C3153       C  0.41817393  0.59927547  0.15557345    -0.12600
C3154       C  0.42906894  0.61306994  0.15490212     0.04700
C3155       C  0.41238819  0.56929112  0.16237609     0.27100
C3156       C  0.41281919  0.55908888  0.14804029    -0.13300
C3157       C  0.40136435  0.54583060  0.14608982     0.05200
C3158       C  0.38960966  0.54222641  0.15891283    -0.09300
C3159       C  0.39037542  0.55180304  0.17403173     0.06000
C3160       C  0.40132047  0.56558267  0.17539438    -0.13600
Br3161     Br  0.39637749  0.60062965  0.14554624    -0.05700
Br3162     Br  0.47136129  0.59596254  0.18114765    -0.00100
Br3163     Br  0.40275457  0.53268259  0.12578678     0.00400
Br3164     Br  0.40097732  0.57991632  0.19495299    -0.04100
Br3165     Br  0.42205267  0.63357301  0.14431647     0.00500
Br3166     Br  0.44555041  0.56313523  0.18229855    -0.03300
Br3167     Br  0.42926348  0.56357160  0.13097599    -0.04200
Br3168     Br  0.37691713  0.54670183  0.19340944    -0.00200
C3169       C  0.58119678  0.55136066  0.15007108     0.01200
C3170       C  0.58115025  0.56585328  0.13991512     0.04000
C3171       C  0.56812552  0.57764083  0.14122227    -0.12100
C3172       C  0.55526173  0.57537070  0.15298467     0.23300
C3173       C  0.55538513  0.56109178  0.16329115    -0.12600
C3174       C  0.56810385  0.54902132  0.16169615     0.04700
C3175       C  0.54159425  0.58798918  0.15448810     0.27100
C3176       C  0.54400340  0.60281377  0.16387898    -0.13300
C3177       C  0.53126664  0.61494237  0.16498151     0.05200
C3178       C  0.51606949  0.61251147  0.15633647    -0.09300
C3179       C  0.51344221  0.59726320  0.14754999     0.06000
C3180       C  0.52615297  0.58512814  0.14659963    -0.13600
Br3181     Br  0.53798437  0.55812828  0.17964175    -0.05700
Br3182     Br  0.59933006  0.57020054  0.12475857    -0.00100
Br3183     Br  0.53504818  0.63499728  0.17806368     0.00400
Br3184     Br  0.52250010  0.56451798  0.13436097    -0.04100
Br3185     Br  0.56680559  0.52882430  0.17487888     0.00500
Br3186     Br  0.56778235  0.59699120  0.12683006    -0.03300
Br3187     Br  0.56497541  0.60651976  0.17507251    -0.04200
Br3188     Br  0.49205909  0.59238226  0.13755991    -0.00200
C3189       C  0.58154664  0.47841643  0.14641399     0.01200
C3190       C  0.58605402  0.46232102  0.15197495     0.04000
C3191       C  0.57455645  0.44912180  0.15111825    -0.12100
C3192       C  0.55853026  0.45201360  0.14474853     0.23300
C3193       C  0.55397104  0.46804305  0.13910487    -0.12600
C3194       C  0.56548512  0.48129786  0.13998502     0.04700
C3195       C  0.54632734  0.43822302  0.14469027     0.27100
C3196       C  0.54463224  0.42793133  0.13053264    -0.13300
C3197       C  0.53347419  0.41434285  0.13073657     0.05200
C3198       C  0.52407809  0.41082575  0.14541440    -0.09300
C3199       C  0.52641515  0.42105671  0.15983709     0.06000
C3200       C  0.53726473  0.43486246  0.15926682    -0.13600
Br3201     Br  0.53197846  0.47170852  0.13020978    -0.05700
Br3202     Br  0.60819081  0.45800729  0.16001408    -0.00100
Br3203     Br  0.53221721  0.40043664  0.11085078     0.00400
Br3204     Br  0.53995734  0.44938074  0.17853640    -0.04100
Br3205     Br  0.55907119  0.50349114  0.13299183     0.00500
Br3206     Br  0.58072286  0.42694983  0.15848440    -0.03300
Br3207     Br  0.55803471  0.43242457  0.11098192    -0.04200
Br3208     Br  0.51508845  0.41683579  0.18069833    -0.00200
C3209       C  0.58613061  0.84491590  0.46756932     0.01200
C3210       C  0.58844318  0.83396835  0.45379162     0.04000
C3211       C  0.57709127  0.83410253  0.44034902    -0.12100
C3212       C  0.56326691  0.84490053  0.44072116     0.23300
C3213       C  0.56052142  0.85523274  0.45475689    -0.12600
C3214       C  0.57184981  0.85521676  0.46816221     0.04700
C3215       C  0.55167823  0.84573866  0.42627558     0.27100
C3216       C  0.55387878  0.85820430  0.41406896    -0.13300
C3217       C  0.54217261  0.85999828  0.40111524     0.05200
C3218       C  0.52801645  0.84942880  0.40041143    -0.09300
C3219       C  0.52606365  0.83665977  0.41247760     0.06000
C3220       C  0.53794660  0.83477654  0.42528743    -0.13600
Br3221     Br  0.54123807  0.86960533  0.45542264    -0.05700
Br3222     Br  0.60745374  0.81925103  0.45275353    -0.00100
Br3223     Br  0.54597357  0.87669149  0.38409449     0.00400
Br3224     Br  0.53526098  0.81750377  0.44189002    -0.04100
Br3225     Br  0.56723192  0.86881375  0.48767025     0.00500
Br3226     Br  0.58063423  0.81987429  0.42111340    -0.03300
Br3227     Br  0.57288428  0.87302138  0.41536823    -0.04200
Br3228     Br  0.50655295  0.82247394  0.41239592    -0.00200
C3229       C  0.51420038  0.85375757  0.59470965     0.01200
C3230       C  0.52931819  0.84641465  0.59977559     0.04000
C3231       C  0.54242207  0.84447471  0.58824643    -0.12100
C3232       C  0.54066856  0.85027340  0.57172568     0.23300
C3233       C  0.52547079  0.85734166  0.56655577    -0.12600
C3234       C  0.51223140  0.85899316  0.57798839     0.04700
C3235       C  0.55519700  0.84995315  0.56019238     0.27100
C3236       C  0.56691029  0.86309999  0.56072855    -0.13300
C3237       C  0.58107770  0.86267985  0.55038362     0.05200
C3238       C  0.58333422  0.84935541  0.53882770    -0.09300
C3239       C  0.57128787  0.83631673  0.53810555     0.06000
C3240       C  0.55747177  0.83651104  0.54897482    -0.13600
Br3241     Br  0.52297408  0.86500248  0.54385539    -0.05700
Br3242     Br  0.53256241  0.84016596  0.62282066    -0.00100
Br3243     Br  0.59766327  0.88010770  0.55291691     0.00400
Br3244     Br  0.54146574  0.81842103  0.54852450    -0.04100
Br3245     Br  0.49127285  0.86814803  0.57064452     0.00500
Br3246     Br  0.56298094  0.83412884  0.59507077    -0.03300
Br3247     Br  0.56335092  0.88182005  0.57569833    -0.04200
Br3248     Br  0.57278231  0.81862036  0.52158579    -0.00200
C3249       C  0.44218756  0.85533260  0.59055946     0.01200
C3250       C  0.44262891  0.84075810  0.58033219     0.04000
C3251       C  0.43058791  0.83832049  0.56776230    -0.12100
C3252       C  0.41862021  0.85074514  0.56471174     0.23300
C3253       C  0.41824762  0.86535293  0.57462348    -0.12600
C3254       C  0.42980049  0.86757863  0.58766338     0.04700
C3255       C  0.40670400  0.84884808  0.55069193     0.27100
C3256       C  0.41068268  0.85549240  0.53490524    -0.13300
C3257       C  0.39872397  0.85543569  0.52207248     0.05200
C3258       C  0.38285265  0.84846852  0.52493983    -0.09300
C3259       C  0.37930938  0.84070895  0.54037110     0.06000
C3260       C  0.39114038  0.84116485  0.55332537    -0.13600
Br3261     Br  0.40171036  0.88230247  0.57024692    -0.05700
Br3262     Br  0.46034930  0.82456893  0.58239463    -0.00100
Br3263     Br  0.40431728  0.86424326  0.50034753     0.00400
Br3264     Br  0.38596845  0.83167073  0.57485013    -0.04100
Br3265     Br  0.42789508  0.88720117  0.60180246     0.00500
Br3266     Br  0.43035283  0.81795782  0.55460792    -0.03300
Br3267     Br  0.43252693  0.86477020  0.53101221    -0.04200
Br3268     Br  0.35812550  0.82984138  0.54404089    -0.00200
C3269       C  0.11875835  0.52951786  0.40072310     0.01200
C3270       C  0.11037771  0.54465286  0.39719927     0.04000
C3271       C  0.10928677  0.55733190  0.40948773    -0.12100
C3272       C  0.11642074  0.55490736  0.42538215     0.23300
C3273       C  0.12442347  0.53967134  0.42905153    -0.12600
C3274       C  0.12570531  0.52706355  0.41675060     0.04700
C3275       C  0.11607873  0.56855630  0.43812158     0.27100
C3276       C  0.13013667  0.57882144  0.44040148    -0.13300
C3277       C  0.13044417  0.59105970  0.45316575     0.05200
C3278       C  0.11608554  0.59392073  0.46323819    -0.09300
C3279       C  0.10193924  0.58336098  0.46080244     0.06000
C3280       C  0.10209991  0.57069564  0.44842900    -0.13600
Br3281     Br  0.13369610  0.53618653  0.45102736    -0.05700
Br3282     Br  0.10128463  0.54856970  0.37523803    -0.00100
Br3283     Br  0.15110898  0.60314467  0.45647912     0.00400
Br3284     Br  0.08327478  0.55579666  0.44569183    -0.04100
Br3285     Br  0.13667401  0.50626549  0.42213134     0.00500
Br3286     Br  0.09840848  0.57826223  0.40450487    -0.03300
Br3287     Br  0.14907414  0.57596174  0.42576413    -0.04200
Br3288     Br  0.08245430  0.58490006  0.47491532    -0.00200
C3289       C  0.12152590  0.53575143  0.60090810     0.01200
C3290       C  0.11160949  0.53313224  0.58655640     0.04000
C3291       C  0.10982273  0.54597640  0.57469848    -0.12100
C3292       C  0.11822760  0.56135952  0.57689303     0.23300
C3293       C  0.12799577  0.56407662  0.59129727    -0.12600
C3294       C  0.12962053  0.55131930  0.60330965     0.04700
C3295       C  0.11771908  0.57410869  0.56340530     0.27100
C3296       C  0.12846651  0.57248913  0.54960499    -0.13300
C3297       C  0.12756820  0.58390631  0.53628600     0.05200
C3298       C  0.11611068  0.59730851  0.53682627    -0.09300
C3299       C  0.10543730  0.59901681  0.55079709     0.06000
C3300       C  0.10620190  0.58737408  0.56399298    -0.13600
Br3301     Br  0.13920588  0.58527806  0.59445079    -0.05700
Br3302     Br  0.10135806  0.51156176  0.58248008    -0.00100
Br3303     Br  0.14145001  0.58042212  0.51687954     0.00400
Br3304     Br  0.09151475  0.58949905  0.58295034    -0.04100
Br3305     Br  0.14254878  0.55540275  0.62328098     0.00500
Br3306     Br  0.09601381  0.54251055  0.55523228    -0.03300
Br3307     Br  0.14440253  0.55442475  0.54898679    -0.04200
Br3308     Br  0.09025298  0.61767738  0.55238761    -0.00200
C3309       C  0.12731774  0.39720384  0.53844361     0.01200
C3310       C  0.11678417  0.41125943  0.53685373     0.04000
C3311       C  0.11688170  0.42384464  0.54915095    -0.12100
C3312       C  0.12774980  0.42267337  0.56286507     0.23300
C3313       C  0.13868794  0.40899370  0.56423899    -0.12600
C3314       C  0.13842063  0.39617481  0.55209000     0.04700
C3315       C  0.12752686  0.43592701  0.57582132     0.27100
C3316       C  0.13677483  0.45071849  0.57346525    -0.13300
C3317       C  0.13576260  0.46380400  0.58522259     0.05200
C3318       C  0.12564216  0.46201573  0.59955224    -0.09300
C3319       C  0.11630684  0.44713147  0.60183786     0.06000
C3320       C  0.11727209  0.43413458  0.58994839    -0.13600
Br3321     Br  0.15388114  0.40788225  0.58288230    -0.05700
Br3322     Br  0.10272342  0.41387852  0.51742503    -0.00100
Br3323     Br  0.14751160  0.48453524  0.58099680     0.00400
Br3324     Br  0.10449526  0.41380663  0.59284490    -0.04100
Br3325     Br  0.15266709  0.37692026  0.55471040     0.00500
Br3326     Br  0.10206887  0.44277495  0.54731492    -0.03300
Br3327     Br  0.15063996  0.45303918  0.55390824    -0.04200
Br3328     Br  0.10260220  0.44403039  0.62143254    -0.00200
C3329       C  0.44962442  0.13555581  0.59284831     0.01200
C3330       C  0.43942563  0.12101700  0.59098063     0.04000
C3331       C  0.42829276  0.11957596  0.57744909    -0.12100
C3332       C  0.42629695  0.13289571  0.56622986     0.23300
C3333       C  0.43559474  0.14769803  0.56838818    -0.12600
C3334       C  0.44738780  0.14902470  0.58142015     0.04700
C3335       C  0.41389920  0.13144008  0.55249701     0.27100
C3336       C  0.41865669  0.12515766  0.53670212    -0.13300
C3337       C  0.40668757  0.12307004  0.52397034     0.05200
C3338       C  0.38995002  0.12725586  0.52703108    -0.09300
C3339       C  0.38522830  0.13362402  0.54279801     0.06000
C3340       C  0.39717840  0.13575098  0.55548180    -0.13600
Br3341     Br  0.43199506  0.16616721  0.55327061    -0.05700
Br3342     Br  0.43921003  0.10323831  0.60737291    -0.00100
Br3343     Br  0.41323987  0.11500887  0.50218709     0.00400
Br3344     Br  0.39071156  0.14461209  0.57700012    -0.04100
Br3345     Br  0.46036218  0.16943061  0.58279288     0.00500
Br3346     Br  0.41556015  0.09922409  0.57410177    -0.03300
Br3347     Br  0.44160320  0.11952683  0.53259014    -0.04200
Br3348     Br  0.36226574  0.13909613  0.54717265    -0.00200
C3349       C  0.58668401  0.13553321  0.53364422     0.01200
C3350       C  0.57110826  0.12839933  0.52961723     0.04000
C3351       C  0.55852739  0.12752462  0.54183539    -0.12100
C3352       C  0.56142506  0.13395576  0.55803019     0.23300
C3353       C  0.57706289  0.14087959  0.56209968    -0.12600
C3354       C  0.58968527  0.14161657  0.54995898     0.04700
C3355       C  0.54784040  0.13412201  0.57061693     0.27100
C3356       C  0.53643465  0.14743071  0.57088818    -0.13300
C3357       C  0.52364736  0.14788372  0.58291793     0.05200
C3358       C  0.52247791  0.13519422  0.59530515    -0.09300
C3359       C  0.53408501  0.12175351  0.59482408     0.06000
C3360       C  0.54655134  0.12122039  0.58243881    -0.13600
Br3361     Br  0.58103786  0.14960221  0.58429115    -0.05700
Br3362     Br  0.56666725  0.12076512  0.50712346    -0.00100
Br3363     Br  0.50737535  0.16558662  0.58126157     0.00400
Br3364     Br  0.56214625  0.10283930  0.58158220    -0.04100
Br3365     Br  0.61125097  0.15064509  0.55581268     0.00500
Br3366     Br  0.53718060  0.11781616  0.53640141    -0.03300
Br3367     Br  0.53854115  0.16515361  0.55461527    -0.04200
Br3368     Br  0.53381890  0.10407439  0.61121654    -0.00200
C3369       C  0.58968829  0.14351860  0.45979393     0.01200
C3370       C  0.57460281  0.15243012  0.46156346     0.04000
C3371       C  0.56301707  0.15282789  0.44830343    -0.12100
C3372       C  0.56642689  0.14444291  0.43313833     0.23300
C3373       C  0.58169956  0.13604305  0.43113222    -0.12600
C3374       C  0.59321580  0.13542187  0.44441951     0.04700
C3375       C  0.55358690  0.14356443  0.41965290     0.27100
C3376       C  0.54362098  0.12912540  0.41797446    -0.13300
C3377       C  0.53188214  0.12778568  0.40490992     0.05200
C3378       C  0.52904199  0.14151040  0.39399165    -0.09300
C3379       C  0.53925831  0.15601229  0.39576792     0.06000
C3380       C  0.55161361  0.15684103  0.40832233    -0.13600
Br3381     Br  0.58674882  0.12535093  0.41004257    -0.05700
Br3382     Br  0.56917921  0.16322116  0.48250518    -0.00100
Br3383     Br  0.52014460  0.10677710  0.40241111     0.00400
Br3384     Br  0.56618717  0.17608120  0.40996220    -0.04100
Br3385     Br  0.61399011  0.12372661  0.44121502     0.00500
Br3386     Br  0.54220225  0.16451603  0.45098441    -0.03300
Br3387     Br  0.54596894  0.11121269  0.43399522    -0.04200
Br3388     Br  0.53742359  0.17460726  0.38054859    -0.00200
C3389       C  0.82883159  0.46113960  0.60082756     0.01200
C3390       C  0.83821758  0.44637096  0.60276599     0.04000
C3391       C  0.83975391  0.43502985  0.58938817    -0.12100
C3392       C  0.83125327  0.43799891  0.57429406     0.23300
C3393       C  0.82120536  0.45234838  0.57260892    -0.12600
C3394       C  0.82016340  0.46404311  0.58579092     0.04700
C3395       C  0.83269526  0.42579969  0.56035452     0.27100
C3396       C  0.84363661  0.42893607  0.54698755    -0.13300
C3397       C  0.84518648  0.41716502  0.53390694     0.05200
C3398       C  0.83591547  0.40207266  0.53425809    -0.09300
C3399       C  0.82552395  0.39870444  0.54813882     0.06000
C3400       C  0.82361058  0.41071927  0.56088097    -0.13600
Br3401     Br  0.80907525  0.45602138  0.55213869    -0.05700
Br3402     Br  0.84843217  0.44131482  0.62400977    -0.00100
Br3403     Br  0.85975407  0.42217402  0.51551985     0.00400
Br3404     Br  0.80845879  0.40660788  0.57915509    -0.04100
Br3405     Br  0.80758008  0.48439730  0.58287169     0.00500
Br3406     Br  0.85383235  0.41558618  0.59156096    -0.03300
Br3407     Br  0.85648344  0.44944547  0.54669994    -0.04200
Br3408     Br  0.81482437  0.37710396  0.55062265    -0.00200
C3409       C  0.84204862  0.66702405  0.46305024     0.01200
C3410       C  0.83331112  0.68232055  0.46488833     0.04000
C3411       C  0.83428162  0.69469186  0.45236810    -0.12100
C3412       C  0.84422871  0.69202929  0.43813543     0.23300
C3413       C  0.85372141  0.67730196  0.43674852    -0.12600
C3414       C  0.85268734  0.66488115  0.44913419     0.04700
C3415       C  0.84393187  0.70396148  0.42392021     0.27100
C3416       C  0.83212874  0.70168902  0.41113755    -0.13300
C3417       C  0.83320514  0.71110206  0.39636180     0.05200
C3418       C  0.84643956  0.72269940  0.39404631    -0.09300
C3419       C  0.85778943  0.72552552  0.40732365     0.06000
C3420       C  0.85638893  0.71628060  0.42225977    -0.13600
Br3421     Br  0.86772344  0.67394298  0.41738646    -0.05700
Br3422     Br  0.82073424  0.68686548  0.48494684    -0.00100
Br3423     Br  0.81620829  0.70787414  0.37951571     0.00400
Br3424     Br  0.87196532  0.71981274  0.44030650    -0.04100
Br3425     Br  0.86541874  0.64471856  0.44629328     0.00500
Br3426     Br  0.82179812  0.71521057  0.45441683    -0.03300
Br3427     Br  0.81487053  0.68496789  0.41367096    -0.04200
Br3428     Br  0.87622262  0.74082709  0.40488352    -0.00200
C3429       C  0.82994258  0.59550463  0.53665376     0.01200
C3430       C  0.81576490  0.58506116  0.53867960     0.04000
C3431       C  0.81525493  0.57323526  0.55170000    -0.12100
C3432       C  0.82866639  0.57187498  0.56289958     0.23300
C3433       C  0.84227256  0.58289219  0.56165012    -0.12600
C3434       C  0.84279208  0.59489972  0.54883600     0.04700
C3435       C  0.82853157  0.55868027  0.57590228     0.27100
C3436       C  0.82027671  0.56142134  0.59118045    -0.13300
C3437       C  0.81951677  0.54858404  0.60317323     0.05200
C3438       C  0.82829149  0.53346738  0.60051489    -0.09300
C3439       C  0.83662137  0.53079959  0.58517793     0.06000
C3440       C  0.83640889  0.54324420  0.57278419    -0.13600
Br3441     Br  0.86026459  0.58136398  0.57758476    -0.05700
Br3442     Br  0.79685321  0.58646463  0.52389809    -0.00100
Br3443     Br  0.80638920  0.55192875  0.62310438     0.00400
Br3444     Br  0.84682950  0.53921389  0.55140833    -0.04100
Br3445     Br  0.86054852  0.61134444  0.54921210     0.00500
Br3446     Br  0.79632108  0.55846375  0.55412034    -0.03300
Br3447     Br  0.81048977  0.58301808  0.59579043    -0.04200
Br3448     Br  0.84762474  0.50976020  0.58064409    -0.00200
C3449       C  0.83170973  0.59202190  0.46159675     0.01200
C3450       C  0.81757498  0.58125332  0.46117478     0.04000
C3451       C  0.81598193  0.56873271  0.44868552    -0.12100
C3452       C  0.82830292  0.56683179  0.43634361     0.23300
C3453       C  0.84250274  0.57716850  0.43682842    -0.12600
C3454       C  0.84447396  0.58932214  0.44957575     0.04700
C3455       C  0.82686970  0.55345451  0.42324368     0.27100
C3456       C  0.83519130  0.53808579  0.42534696    -0.13300
C3457       C  0.83542400  0.52611756  0.41231690     0.05200
C3458       C  0.82722622  0.52935070  0.39700289    -0.09300
C3459       C  0.81784169  0.54425545  0.39540190     0.06000
C3460       C  0.81793584  0.55636468  0.40836624    -0.13600
Br3461     Br  0.85933108  0.57454438  0.41976016    -0.05700
Br3462     Br  0.80088323  0.58226315  0.47845997    -0.00100
Br3463     Br  0.84648197  0.50495086  0.41587738     0.00400
Br3464     Br  0.80640104  0.57734031  0.40556375    -0.04100
Br3465     Br  0.86514022  0.60160340  0.45027463     0.00500
Br3466     Br  0.79707964  0.55373815  0.44859551    -0.03300
Br3467     Br  0.84658729  0.53364301  0.44609587    -0.04200
Br3468     Br  0.80524787  0.54857556  0.37534143    -0.00200
C3469       C  0.71826388  0.86667055  0.60704795     0.01200
C3470       C  0.70191058  0.87353224  0.60885172     0.04000
C3471       C  0.69002289  0.87164211  0.59583352    -0.12100
C3472       C  0.69395636  0.86267330  0.58116334     0.23300
C3473       C  0.71034150  0.85713853  0.57879333    -0.12600
C3474       C  0.72258591  0.86052318  0.59092696     0.04700
C3475       C  0.68127370  0.86021352  0.56763472     0.27100
C3476       C  0.66872617  0.84790623  0.56917582    -0.13300
C3477       C  0.65674289  0.84570778  0.55640772     0.05200
C3478       C  0.65741532  0.85556904  0.54174010    -0.09300
C3479       C  0.67018687  0.86771489  0.54014896     0.06000
C3480       C  0.68185512  0.87017559  0.55312161    -0.13600
Br3481     Br  0.71600521  0.84442669  0.55899887    -0.05700
Br3482     Br  0.69487636  0.88628821  0.62810179    -0.00100
Br3483     Br  0.63889237  0.82977977  0.55963027     0.00400
Br3484     Br  0.69864815  0.88742235  0.55112724    -0.04100
Br3485     Br  0.74546162  0.85956151  0.58395701     0.00500
Br3486     Br  0.66804156  0.88123162  0.59791794    -0.03300
Br3487     Br  0.66799085  0.83406543  0.58889449    -0.04200
Br3488     Br  0.67241546  0.88054376  0.51985067    -0.00200
C3489       C  0.75922120  0.89268943  0.64419463     0.01200
C3490       C  0.77015969  0.89519817  0.65800585     0.04000
C3491       C  0.77957102  0.91008299  0.65949259    -0.12100
C3492       C  0.77877759  0.92240313  0.64702685     0.23300
C3493       C  0.76806704  0.92006549  0.63327444    -0.12600
C3494       C  0.75829329  0.90535420  0.63185265     0.04700
C3495       C  0.79034079  0.93707282  0.64773411     0.27100
C3496       C  0.78566716  0.95202739  0.65593606    -0.13300
C3497       C  0.79694015  0.96560263  0.65704708     0.05200
C3498       C  0.81293963  0.96429098  0.64991579    -0.09300
C3499       C  0.81761438  0.94928898  0.64177204     0.06000
C3500       C  0.80637096  0.93574275  0.64071285    -0.13600
Br3501     Br  0.76759090  0.93678757  0.61592005    -0.05700
Br3502     Br  0.77342872  0.87815420  0.67475788    -0.00100
Br3503     Br  0.79029246  0.98616518  0.66789436     0.00400
Br3504     Br  0.81299662  0.91513925  0.62989011    -0.04100
Br3505     Br  0.74525976  0.90203219  0.61187881     0.00500
Br3506     Br  0.79429216  0.91346451  0.67834342    -0.03300
Br3507     Br  0.76384019  0.95376074  0.66573974    -0.04200
Br3508     Br  0.83975839  0.94695072  0.63271825    -0.00200
C3509       C  0.30815870  0.87398249  0.72772504     0.01200
C3510       C  0.30376597  0.88564958  0.71520429     0.04000
C3511       C  0.29015187  0.88250230  0.70457183    -0.12100
C3512       C  0.28050529  0.86790411  0.70660096     0.23300
C3513       C  0.28337474  0.85750669  0.72049693    -0.12600
C3514       C  0.29713038  0.86056211  0.73111504     0.04700
C3515       C  0.26918945  0.86246660  0.69280208     0.27100
C3516       C  0.25317166  0.86924960  0.69103550    -0.13300
C3517       C  0.24394027  0.86657924  0.67614372     0.05200
C3518       C  0.25090637  0.85700009  0.66273293    -0.09300
C3519       C  0.26585400  0.84804401  0.66608977     0.06000
C3520       C  0.27515686  0.85127108  0.68065104    -0.13600
Br3521     Br  0.26900771  0.83846800  0.72416918    -0.05700
Br3522     Br  0.31644094  0.90602178  0.71241226    -0.00100
Br3523     Br  0.22197669  0.87617946  0.67530922     0.00400
Br3524     Br  0.29662772  0.84079992  0.68373130    -0.04100
Br3525     Br  0.30100171  0.84579410  0.74962574     0.00500
Br3526     Br  0.28544276  0.89754794  0.68633792    -0.03300
Br3527     Br  0.24424248  0.88251463  0.70916450    -0.04200
Br3528     Br  0.27349392  0.83018521  0.65168587    -0.00200
C3529       C  0.37038122  0.87578025  0.72041110     0.01200
C3530       C  0.37825282  0.86061494  0.71515804     0.04000
C3531       C  0.39253236  0.86089994  0.70495960    -0.12100
C3532       C  0.39789973  0.87588284  0.69758729     0.23300
C3533       C  0.38905661  0.89073270  0.70079127    -0.12600
C3534       C  0.37515417  0.89068827  0.71168732     0.04700
C3535       C  0.41156484  0.87530839  0.68491022     0.27100
C3536       C  0.42800439  0.87968290  0.68935390    -0.13300
C3537       C  0.44112248  0.87727824  0.67786596     0.05200
C3538       C  0.43797803  0.86987316  0.66212437    -0.09300
C3539       C  0.42154611  0.86560708  0.65762739     0.06000
C3540       C  0.40833582  0.86877603  0.66877557    -0.13600
Br3541     Br  0.39585173  0.91107938  0.68966990    -0.05700
Br3542     Br  0.36774459  0.83907184  0.71736507    -0.00100
Br3543     Br  0.46354792  0.88350779  0.68389237     0.00400
Br3544     Br  0.38573987  0.86404655  0.66203230    -0.04100
Br3545     Br  0.36149274  0.91060031  0.71178411     0.00500
Br3546     Br  0.40458292  0.84039299  0.70037204    -0.03300
Br3547     Br  0.43255983  0.88845637  0.71138139    -0.04200
Br3548     Br  0.41718010  0.85519195  0.63624367    -0.00200
C3549       C  0.33603101  0.97544252  0.82414329     0.01200
C3550       C  0.32923921  0.96002791  0.82949993     0.04000
C3551       C  0.32898642  0.94608262  0.81858756    -0.12100
C3552       C  0.33520705  0.94757484  0.80218162     0.23300
C3553       C  0.34108024  0.96324768  0.79655588    -0.12600
C3554       C  0.34150057  0.97713502  0.80750749     0.04700
C3555       C  0.33615982  0.93260993  0.79097059     0.27100
C3556       C  0.35089843  0.92316694  0.79021925    -0.13300
C3557       C  0.35233450  0.90968404  0.77885244     0.05200
C3558       C  0.33898219  0.90555353  0.76792045    -0.09300
C3559       C  0.32384923  0.91449757  0.76948202     0.06000
C3560       C  0.32253336  0.92801717  0.78087150    -0.13600
Br3561     Br  0.34884108  0.96553711  0.77387713    -0.05700
Br3562     Br  0.32095923  0.95776798  0.85202514    -0.00100
Br3563     Br  0.37219073  0.89605580  0.77958878     0.00400
Br3564     Br  0.30209064  0.94053386  0.78264275    -0.04100
Br3565     Br  0.34909131  0.99867587  0.79963967     0.00500
Br3566     Br  0.32069737  0.92473247  0.82622788    -0.03300
Br3567     Br  0.36909199  0.92872663  0.80504377    -0.04200
Br3568     Br  0.30479288  0.90876059  0.75602122    -0.00200
C3569       C  0.84764688  0.60241320  0.73018117     0.01200
C3570       C  0.83150883  0.59787706  0.72406096     0.04000
C3571       C  0.82917842  0.58353936  0.71401139    -0.12100
C3572       C  0.84288654  0.57423036  0.70860124     0.23300
C3573       C  0.85901776  0.57937985  0.71298183    -0.12600
C3574       C  0.86150390  0.59388627  0.72283829     0.04700
C3575       C  0.84041453  0.56052831  0.69624958     0.27100
C3576       C  0.83580688  0.54435530  0.70155094    -0.13300
C3577       C  0.83307893  0.53155238  0.68968167     0.05200
C3578       C  0.83574374  0.53472330  0.67258137    -0.09300
C3579       C  0.84065465  0.55083941  0.66732772     0.06000
C3580       C  0.84236918  0.56386977  0.67907548    -0.13600
Br3581     Br  0.87778465  0.56681302  0.70452439    -0.05700
Br3582     Br  0.81264134  0.61254044  0.72571965    -0.00100
Br3583     Br  0.82625332  0.50954156  0.69685831     0.00400
Br3584     Br  0.84706458  0.58641091  0.67165584    -0.04100
Br3585     Br  0.88364832  0.60345516  0.72214962     0.00500
Br3586     Br  0.80712720  0.57705432  0.70653566    -0.03300
Br3587     Br  0.83341811  0.53983219  0.72507991    -0.04200
Br3588     Br  0.84530050  0.55508254  0.64407710    -0.00200
C3589       C  0.95249073  0.64501744  0.82815052     0.01200
C3590       C  0.93757603  0.65403253  0.83074009     0.04000
C3591       C  0.92424839  0.65252265  0.81935449    -0.12100
C3592       C  0.92555061  0.64183043  0.80536218     0.23300
C3593       C  0.94049209  0.63307917  0.80250355    -0.12600
C3594       C  0.95394637  0.63478112  0.81374899     0.04700
C3595       C  0.91102956  0.63958656  0.79391070     0.27100
C3596       C  0.90003855  0.62600506  0.79611474    -0.13300
C3597       C  0.88618011  0.62390879  0.78546385     0.05200
C3598       C  0.88267735  0.63592661  0.77289345    -0.09300
C3599       C  0.89341733  0.64997008  0.77129530     0.06000
C3600       C  0.90777686  0.65144369  0.78137168    -0.13600
Br3601     Br  0.94241052  0.61870147  0.78314091    -0.05700
Br3602     Br  0.93476696  0.66772901  0.85038700    -0.00100
Br3603     Br  0.87146360  0.60504878  0.78922441     0.00400
Br3604     Br  0.92326187  0.66968936  0.77801138    -0.04100
Br3605     Br  0.97462733  0.62370927  0.80886344     0.00500
Br3606     Br  0.90390978  0.66482235  0.82305675    -0.03300
Br3607     Br  0.90381982  0.61053145  0.81420174    -0.04200
Br3608     Br  0.88892241  0.66745813  0.75547124    -0.00200
C3609       C  0.71449589  0.33773608  0.85935249     0.01200
C3610       C  0.69819878  0.34062569  0.86521951     0.04000
C3611       C  0.68574093  0.32843399  0.86284808    -0.12100
C3612       C  0.68975260  0.31265694  0.85598020     0.23300
C3613       C  0.70637474  0.30908805  0.85169503    -0.12600
C3614       C  0.71881271  0.32144762  0.85383879     0.04700
C3615       C  0.67653340  0.29959547  0.85469706     0.27100
C3616       C  0.67322871  0.28905520  0.86840374    -0.13300
C3617       C  0.65875068  0.27901568  0.86862638     0.05200
C3618       C  0.64746703  0.27948070  0.85509993    -0.09300
C3619       C  0.65141710  0.28928419  0.84089304     0.06000
C3620       C  0.66593921  0.29921012  0.84070551    -0.13600
Br3621     Br  0.71208169  0.28711327  0.84340136    -0.05700
Br3622     Br  0.69350622  0.35992899  0.87911908    -0.00100
Br3623     Br  0.65379760  0.26591606  0.88818849     0.00400
Br3624     Br  0.67107725  0.31295677  0.82159337    -0.04100
Br3625     Br  0.74192021  0.31523789  0.85177101     0.00500
Br3626     Br  0.66315073  0.33313897  0.86952642    -0.03300
Br3627     Br  0.68814800  0.28922476  0.88731418    -0.04200
Br3628     Br  0.63689602  0.28943525  0.82161352    -0.00200
C3629       C  0.65526813  0.46179082  0.86101676     0.01200
C3630       C  0.66797613  0.46333954  0.84882843     0.04000
C3631       C  0.67996544  0.45057708  0.84685588    -0.12100
C3632       C  0.68018614  0.43679437  0.85781677     0.23300
C3633       C  0.66793972  0.43550988  0.87033788    -0.12600
C3634       C  0.65515467  0.44751310  0.87148919     0.04700
C3635       C  0.69311081  0.42345686  0.85620954     0.27100
C3636       C  0.68906206  0.40788416  0.84894033    -0.13300
C3637       C  0.70050280  0.39443663  0.84931114     0.05200
C3638       C  0.71637590  0.39650692  0.85715080    -0.09300
C3639       C  0.72100857  0.41307054  0.86216759     0.06000
C3640       C  0.70925672  0.42615536  0.86236820    -0.13600
Br3641     Br  0.66884660  0.41724157  0.88607987    -0.05700
Br3642     Br  0.66982807  0.48330774  0.83537822    -0.00100
Br3643     Br  0.69340500  0.37387294  0.83864484     0.00400
Br3644     Br  0.71506771  0.44779586  0.87171248    -0.04100
Br3645     Br  0.63688522  0.44340930  0.88662565     0.00500
Br3646     Br  0.69603831  0.45179547  0.82898320    -0.03300
Br3647     Br  0.66736453  0.40508300  0.83878942    -0.04200
Br3648     Br  0.74379218  0.41887882  0.86734366    -0.00200
C3649       C  0.81231017  0.36929446  0.96550774     0.01200
C3650       C  0.79928226  0.35730298  0.96578528     0.04000
C3651       C  0.78790371  0.35630343  0.95243331    -0.12100
C3652       C  0.78908774  0.36759776  0.93901539     0.23300
C3653       C  0.80162061  0.37994645  0.93897354    -0.12600
C3654       C  0.81335937  0.38068140  0.95202442     0.04700
C3655       C  0.77774349  0.36594817  0.92444774     0.27100
C3656       C  0.78246866  0.35604405  0.91070556    -0.13300
C3657       C  0.77203589  0.35478653  0.89662122     0.05200
C3658       C  0.75733587  0.36470966  0.89555426    -0.09300
C3659       C  0.75136509  0.37200380  0.91068937     0.06000
C3660       C  0.76193631  0.37340192  0.92469620    -0.13600
Br3661     Br  0.80287821  0.39554600  0.92063405    -0.05700
Br3662     Br  0.79647773  0.34248715  0.98463264    -0.00100
Br3663     Br  0.77706379  0.33743115  0.88037785     0.00400
Br3664     Br  0.75472809  0.38526622  0.94448848    -0.04100
Br3665     Br  0.83153116  0.39651049  0.95047870     0.00500
Br3666     Br  0.77090140  0.33914724  0.95219599    -0.03300
Br3667     Br  0.80329962  0.34401731  0.91140189    -0.04200
Br3668     Br  0.72799138  0.37651661  0.91419081    -0.00200
C3669       C  0.59954798  0.73370288  0.85676179     0.01200
C3670       C  0.58857220  0.73509746  0.87056395     0.04000
C3671       C  0.57448931  0.72456501  0.87178236    -0.12100
C3672       C  0.57152736  0.71208064  0.85966345     0.23300
C3673       C  0.58262306  0.71022628  0.84620052    -0.12600
C3674       C  0.59658265  0.72087580  0.84477769     0.04700
C3675       C  0.55725186  0.70026975  0.86155552     0.27100
C3676       C  0.55907870  0.68565147  0.87122089    -0.13300
C3677       C  0.54584620  0.67409444  0.87255123     0.05200
C3678       C  0.53064597  0.67713834  0.86427785    -0.09300
C3679       C  0.52868187  0.69201264  0.85497080     0.06000
C3680       C  0.54197172  0.70350162  0.85356740    -0.13600
Br3681     Br  0.57874202  0.69274057  0.82986548    -0.05700
Br3682     Br  0.59252695  0.75098597  0.88824500    -0.00100
Br3683     Br  0.54889381  0.65368189  0.88503147     0.00400
Br3684     Br  0.53933236  0.72373275  0.84073232    -0.04100
Br3685     Br  0.61255055  0.71634554  0.82739712     0.00500
Br3686     Br  0.55902321  0.72715436  0.89007753    -0.03300
Br3687     Br  0.57988824  0.68143372  0.88245905    -0.04200
Br3688     Br  0.50753200  0.69704145  0.84472989    -0.00200
C3689       C  0.62750492  0.77482674  0.88765433     0.01200
C3690       C  0.61576065  0.78798618  0.88946355     0.04000
C3691       C  0.61597188  0.79825431  0.90378499    -0.12100
C3692       C  0.62761516  0.79534555  0.91654934     0.23300
C3693       C  0.63868297  0.78176673  0.91528727    -0.12600
C3694       C  0.63863701  0.77148742  0.90091355     0.04700
C3695       C  0.62839707  0.80684362  0.93115785     0.27100
C3696       C  0.63942242  0.82057358  0.93105163    -0.13300
C3697       C  0.63999883  0.83170153  0.94475219     0.05200
C3698       C  0.62941450  0.82920586  0.95869501    -0.09300
C3699       C  0.61782691  0.81578685  0.95832449     0.06000
C3700       C  0.61761081  0.80446601  0.94476498    -0.13600
Br3701     Br  0.65435049  0.77777292  0.93311590    -0.05700
Br3702     Br  0.59897789  0.79202329  0.87257066    -0.00100
Br3703     Br  0.65429533  0.85119253  0.94343822     0.00400
Br3704     Br  0.60246468  0.78561119  0.94462070    -0.04100
Br3705     Br  0.65461636  0.75362087  0.89932154     0.00500
Br3706     Br  0.60067390  0.81679437  0.90576276    -0.03300
Br3707     Br  0.65340633  0.82431049  0.91178835    -0.04200
Br3708     Br  0.60191309  0.81271920  0.97601705    -0.00200
C3709       C  0.76083789  0.83017821  0.63817878     0.01200
C3710       C  0.76172485  0.81835448  0.65153458     0.04000
C3711       C  0.77121664  0.80362798  0.64978287    -0.12100
C3712       C  0.78274804  0.80208328  0.63672375     0.23300
C3713       C  0.78371082  0.81463545  0.62453639    -0.12600
C3714       C  0.77284228  0.82847461  0.62508989     0.04700
C3715       C  0.79605299  0.78916616  0.63763188     0.27100
C3716       C  0.80996348  0.79211386  0.64786772    -0.13300
C3717       C  0.82349740  0.78098322  0.64761790     0.05200
C3718       C  0.82350401  0.76673312  0.63677627    -0.09300
C3719       C  0.80854205  0.76292768  0.62795213     0.06000
C3720       C  0.79514902  0.77439042  0.62805127    -0.13600
Br3721     Br  0.80083491  0.81320093  0.60759133    -0.05700
Br3722     Br  0.75590645  0.82403110  0.67434058    -0.00100
Br3723     Br  0.84139110  0.78537192  0.66318286     0.00400
Br3724     Br  0.77552469  0.77029103  0.61468737    -0.04100
Br3725     Br  0.77695668  0.84616978  0.60921082     0.00500
Br3726     Br  0.76958666  0.78598199  0.66617133    -0.03300
Br3727     Br  0.81062861  0.81194200  0.66193828    -0.04200
Br3728     Br  0.80530127  0.74219127  0.61596179    -0.00200
C3729       C  0.85407761  0.66447179  0.73031416     0.01200
C3730       C  0.84226147  0.67741207  0.73211372     0.04000
C3731       C  0.84023442  0.68929112  0.71928345    -0.12100
C3732       C  0.85124686  0.68945177  0.70557938     0.23300
C3733       C  0.86454102  0.67803871  0.70501208    -0.12600
C3734       C  0.86574336  0.66536052  0.71706388     0.04700
C3735       C  0.84916054  0.70165848  0.69176476     0.27100
C3736       C  0.84297381  0.69629119  0.67617226    -0.13300
C3737       C  0.84308921  0.70722689  0.66234462     0.05200
C3738       C  0.84953874  0.72380691  0.66405309    -0.09300
C3739       C  0.85394673  0.72950107  0.68037204     0.06000
C3740       C  0.85428960  0.71834692  0.69392645    -0.13600
Br3741     Br  0.88081486  0.67948544  0.68729894    -0.05700
Br3742     Br  0.82913761  0.67940900  0.75209526    -0.00100
Br3743     Br  0.83451674  0.69853120  0.64152589     0.00400
Br3744     Br  0.86270843  0.72565908  0.71542269    -0.04100
Br3745     Br  0.88354763  0.64922377  0.71523222     0.00500
Br3746     Br  0.82177604  0.70469508  0.71991912    -0.03300
Br3747     Br  0.83501383  0.67347882  0.67375674    -0.04200
Br3748     Br  0.85869725  0.75277384  0.68502407    -0.00200
C3749       C  0.84852394  0.72101847  0.60514237     0.01200
C3750       C  0.83948141  0.72573394  0.59080682     0.04000
C3751       C  0.83614163  0.71388686  0.57813169    -0.12100
C3752       C  0.84331217  0.69780301  0.57883344     0.23300
C3753       C  0.85360441  0.69355699  0.59242360    -0.12600
C3754       C  0.85645381  0.70522418  0.60538763     0.04700
C3755       C  0.84175144  0.68615492  0.56432865     0.27100
C3756       C  0.83011710  0.67292617  0.56457475    -0.13300
C3757       C  0.82904039  0.66170031  0.55094816     0.05200
C3758       C  0.83924319  0.66398743  0.53672951    -0.09300
C3759       C  0.85094756  0.67722335  0.53657131     0.06000
C3760       C  0.85230347  0.68814099  0.55039986    -0.13600
Br3761     Br  0.86445675  0.67201248  0.59279138    -0.05700
Br3762     Br  0.83472904  0.74907984  0.58678808    -0.00100
Br3763     Br  0.81449393  0.64244522  0.55244341     0.00400
Br3764     Br  0.86884352  0.70575138  0.55046479    -0.04100
Br3765     Br  0.87303166  0.70039029  0.62220988     0.00500
Br3766     Br  0.82229170  0.71986915  0.55940121    -0.03300
Br3767     Br  0.81583200  0.67014950  0.58374335    -0.04200
Br3768     Br  0.86485922  0.68080243  0.51724744    -0.00200
C3769       C  0.88626771  0.76425693  0.63004400     0.01200
C3770       C  0.90070185  0.76107466  0.63978345     0.04000
C3771       C  0.91272272  0.77374059  0.64195085    -0.12100
C3772       C  0.91175180  0.78852164  0.63253509     0.23300
C3773       C  0.89953537  0.79004588  0.62008160    -0.12600
C3774       C  0.88700295  0.77779903  0.61855197     0.04700
C3775       C  0.92419873  0.80201436  0.63492619     0.27100
C3776       C  0.92063986  0.81562331  0.64560820    -0.13300
C3777       C  0.93217012  0.82880901  0.64738399     0.05200
C3778       C  0.94734810  0.82828738  0.63856247    -0.09300
C3779       C  0.95108953  0.81438144  0.62826132     0.06000
C3780       C  0.93943097  0.80137087  0.62629255    -0.13600
Br3781     Br  0.89996006  0.80911470  0.60529921    -0.05700
Br3782     Br  0.90698134  0.73854103  0.64591880    -0.00100
Br3783     Br  0.92681445  0.84785795  0.66134123     0.00400
Br3784     Br  0.94419385  0.78266414  0.61167937    -0.04100
Br3785     Br  0.87169339  0.77932884  0.59995115     0.00500
Br3786     Br  0.93066588  0.77083273  0.65771454    -0.03300
Br3787     Br  0.89985407  0.81616619  0.65765020    -0.04200
Br3788     Br  0.97255569  0.81260697  0.61755520    -0.00200
C3789       C  0.76582297  0.83528682  0.36703350     0.01200
C3790       C  0.77709961  0.83283688  0.38065900     0.04000
C3791       C  0.78988526  0.82077412  0.37962307    -0.12100
C3792       C  0.79040036  0.80950144  0.36609631     0.23300
C3793       C  0.77959012  0.81192075  0.35252487    -0.12600
C3794       C  0.76908986  0.82598335  0.35211800     0.04700
C3795       C  0.80283906  0.79566844  0.36565982     0.27100
C3796       C  0.81604299  0.79607573  0.35405595    -0.13300
C3797       C  0.82666262  0.78217749  0.35232343     0.05200
C3798       C  0.82517507  0.76840798  0.36332391    -0.09300
C3799       C  0.81284062  0.76867493  0.37585095     0.06000
C3800       C  0.80132518  0.78193177  0.37660811    -0.13600
Br3801     Br  0.77938366  0.79615290  0.33409745    -0.05700
Br3802     Br  0.77608431  0.84592536  0.40093290    -0.00100
Br3803     Br  0.84394962  0.78265725  0.33552092     0.00400
Br3804     Br  0.78319734  0.78105189  0.39242155    -0.04100
Br3805     Br  0.76493630  0.83479004  0.33007134     0.00500
Br3806     Br  0.80713271  0.81987934  0.39648966    -0.03300
Br3807     Br  0.81997214  0.81599637  0.34097253    -0.04200
Br3808     Br  0.81139287  0.75084697  0.39189831    -0.00200
C3809       C  0.71394787  0.86384737  0.34248009     0.01200
C3810       C  0.71982260  0.86952967  0.32679582     0.04000
C3811       C  0.70861141  0.87251796  0.31359012    -0.12100
C3812       C  0.69146324  0.86965940  0.31578694     0.23300
C3813       C  0.68554968  0.86396436  0.33133984    -0.12600
C3814       C  0.69669336  0.86129210  0.34470277     0.04700
C3815       C  0.67956896  0.87301515  0.30186842     0.27100
C3816       C  0.67214113  0.88885344  0.30039824    -0.13300
C3817       C  0.66016510  0.89185333  0.28784914     0.05200
C3818       C  0.65593254  0.87915512  0.27599046    -0.09300
C3819       C  0.66434918  0.86353744  0.27707055     0.06000
C3820       C  0.67564954  0.86038381  0.29020490    -0.13600
Br3821     Br  0.66207881  0.85963705  0.33413941    -0.05700
Br3822     Br  0.74317154  0.87432701  0.32353957    -0.00100
Br3823     Br  0.64906458  0.91317204  0.28831498     0.00400
Br3824     Br  0.68585754  0.83861217  0.29245000    -0.04100
Br3825     Br  0.68811006  0.85386169  0.36582589     0.00500
Br3826     Br  0.71664957  0.88073184  0.29242542    -0.03300
Br3827     Br  0.67840667  0.90639966  0.31595866    -0.04200
Br3828     Br  0.66191514  0.84656191  0.26008196    -0.00200
C3829       C  0.65676103  0.85042375  0.46679239     0.01200
C3830       C  0.67364963  0.84662902  0.46947855     0.04000
C3831       C  0.68497763  0.84714629  0.45605570    -0.12100
C3832       C  0.67938869  0.85109012  0.43983359     0.23300
C3833       C  0.66240530  0.85435963  0.43704979    -0.12600
C3834       C  0.65117795  0.85438521  0.45055153     0.04700
C3835       C  0.69153077  0.85270080  0.42590548     0.27100
C3836       C  0.69935621  0.86820869  0.42297820    -0.13300
C3837       C  0.71147940  0.86973404  0.41035720     0.05200
C3838       C  0.71547444  0.85583346  0.40005752    -0.09300
C3839       C  0.70706623  0.84034068  0.40273934     0.06000
C3840       C  0.69535492  0.83880276  0.41576124    -0.13600
Br3841     Br  0.65461480  0.85879701  0.41468530    -0.05700
Br3842     Br  0.68136085  0.84150554  0.49170103    -0.00100
Br3843     Br  0.72310448  0.89076424  0.40821327     0.00400
Br3844     Br  0.68427675  0.81767232  0.41973841    -0.04100
Br3845     Br  0.62816259  0.85999247  0.44675248     0.00500
Br3846     Br  0.70824530  0.84273660  0.45984201    -0.03300
Br3847     Br  0.69330505  0.88741513  0.43643655    -0.04200
Br3848     Br  0.71041491  0.82125057  0.38809528    -0.00200
C3849       C  0.75055230  0.89632164  0.37324954     0.01200
C3850       C  0.76354990  0.90081264  0.38434860     0.04000
C3851       C  0.77308398  0.91531715  0.38160560    -0.12100
C3852       C  0.76916567  0.92600460  0.36827651     0.23300
C3853       C  0.75451477  0.92316062  0.35900177    -0.12600
C3854       C  0.74499945  0.90847199  0.36168572     0.04700
C3855       C  0.78116200  0.93944424  0.36365046     0.27100
C3856       C  0.78095014  0.95502292  0.37199918    -0.13300
C3857       C  0.79415544  0.96647643  0.36981861     0.05200
C3858       C  0.80772491  0.96232912  0.35936133    -0.09300
C3859       C  0.80742958  0.94711899  0.35028302     0.06000
C3860       C  0.79416255  0.93573767  0.35241051    -0.13600
Br3861     Br  0.74803707  0.93907329  0.34217186    -0.05700
Br3862     Br  0.76791647  0.88760368  0.40387925    -0.00100
Br3863     Br  0.79338723  0.98803764  0.38086136     0.00400
Br3864     Br  0.79408316  0.91462124  0.34051370    -0.04100
Br3865     Br  0.72435939  0.90567473  0.34984559     0.00500
Br3866     Br  0.79223767  0.92004759  0.39547511    -0.03300
Br3867     Br  0.76276925  0.96032476  0.38681015    -0.04200
Br3868     Br  0.82573022  0.94128021  0.33580558    -0.00200
C3869       C  0.63576736  0.77676650  0.82526837     0.01200
C3870       C  0.64334285  0.79285491  0.82697808     0.04000
C3871       C  0.64053206  0.80523308  0.81489641    -0.12100
C3872       C  0.63290338  0.80091863  0.79968123     0.23300
C3873       C  0.62925054  0.78398776  0.79622812    -0.12600
C3874       C  0.63084679  0.77186154  0.80892601     0.04700
C3875       C  0.62885423  0.81420653  0.78740159     0.27100
C3876       C  0.61304092  0.82160243  0.78771829    -0.13300
C3877       C  0.60920897  0.83476089  0.77674156     0.05200
C3878       C  0.62099163  0.84023897  0.76466313    -0.09300
C3879       C  0.63738010  0.83354632  0.76536984     0.06000
C3880       C  0.64109421  0.82036924  0.77647632    -0.13600
Br3881     Br  0.62197018  0.77761200  0.77411286    -0.05700
Br3882     Br  0.66031329  0.79728914  0.84362122    -0.00100
Br3883     Br  0.58852991  0.84663421  0.78020659     0.00400
Br3884     Br  0.66309480  0.81066078  0.77701263    -0.04100
Br3885     Br  0.62860163  0.74857276  0.80301602     0.00500
Br3886     Br  0.64666538  0.82823989  0.81943078    -0.03300
Br3887     Br  0.59674612  0.81385605  0.80370170    -0.04200
Br3888     Br  0.65550382  0.84246761  0.75237463    -0.00200
C3889       C  0.64103624  0.86785900  0.71746933     0.01200
C3890       C  0.64902108  0.88242028  0.71160305     0.04000
C3891       C  0.66187434  0.88118581  0.69969866    -0.12100
C3892       C  0.66783745  0.86530486  0.69468483     0.23300
C3893       C  0.66027240  0.85070535  0.70105683    -0.12600
C3894       C  0.64630760  0.85199147  0.71156728     0.04700
C3895       C  0.68259097  0.86400759  0.68347981     0.27100
C3896       C  0.68109127  0.85762188  0.66704976    -0.13300
C3897       C  0.69539093  0.85551772  0.65706512     0.05200
C3898       C  0.71086987  0.86202818  0.66246088    -0.09300
C3899       C  0.71228746  0.86832880  0.67889653     0.06000
C3900       C  0.69839224  0.86865878  0.68956641    -0.13600
Br3901     Br  0.66934352  0.82889241  0.69584797    -0.05700
Br3902     Br  0.64217306  0.90408895  0.71962157    -0.00100
Br3903     Br  0.69390695  0.84236112  0.63680520     0.00400
Br3904     Br  0.70111766  0.87471186  0.71284636    -0.04100
Br3905     Br  0.63419355  0.83185865  0.71718822     0.00500
Br3906     Br  0.67109346  0.90126185  0.68993966    -0.03300
Br3907     Br  0.65948543  0.85188510  0.65812761    -0.04200
Br3908     Br  0.73340132  0.87563393  0.68734644    -0.00200
C3909       C  0.51093452  0.86685104  0.66663744     0.01200
C3910       C  0.52424310  0.87849143  0.66530434     0.04000
C3911       C  0.53650247  0.87937350  0.67788085    -0.12100
C3912       C  0.53620022  0.86801409  0.69127909     0.23300
C3913       C  0.52298267  0.85651321  0.69275204    -0.12600
C3914       C  0.51013138  0.85625755  0.68080882     0.04700
C3915       C  0.55076138  0.86671094  0.70262750     0.27100
C3916       C  0.56447468  0.85708556  0.69756656    -0.13300
C3917       C  0.57802224  0.85489814  0.70841035     0.05200
C3918       C  0.57898686  0.86402730  0.72369047    -0.09300
C3919       C  0.56400141  0.87128922  0.72976398     0.06000
C3920       C  0.55026396  0.87330026  0.71896678    -0.13600
Br3921     Br  0.52299653  0.84047095  0.71078163    -0.05700
Br3922     Br  0.52697812  0.89218601  0.64562570    -0.00100
Br3923     Br  0.59368928  0.83742859  0.70303740     0.00400
Br3924     Br  0.53064451  0.88497953  0.72651550    -0.04100
Br3925     Br  0.49135352  0.84150437  0.68443991     0.00500
Br3926     Br  0.55425722  0.89567527  0.67653212    -0.03300
Br3927     Br  0.56469971  0.84688686  0.67558219    -0.04200
Br3928     Br  0.56031395  0.87457547  0.75342330    -0.00200
C3929       C  0.61687669  0.89805803  0.76331835     0.01200
C3930       C  0.61243215  0.91470261  0.75877767     0.04000
C3931       C  0.61423454  0.92802282  0.77031034    -0.12100
C3932       C  0.62158093  0.92527006  0.78600411     0.23300
C3933       C  0.62717919  0.90914736  0.79016220    -0.12600
C3934       C  0.62430009  0.89550279  0.77924316     0.04700
C3935       C  0.62256913  0.93911568  0.79854821     0.27100
C3936       C  0.63513529  0.95139635  0.79748050    -0.13300
C3937       C  0.63581938  0.96461444  0.80923087     0.05200
C3938       C  0.62440083  0.96518453  0.82272214    -0.09300
C3939       C  0.61172573  0.95281038  0.82366659     0.06000
C3940       C  0.61075773  0.93999164  0.81151805    -0.13600
Br3941     Br  0.63851231  0.90584846  0.81122160    -0.05700
Br3942     Br  0.60436764  0.91998483  0.73664228    -0.00100
Br3943     Br  0.65173797  0.98249504  0.80587701     0.00400
Br3944     Br  0.59322760  0.92339670  0.81262025    -0.04100
Br3945     Br  0.62921721  0.87345829  0.78750935     0.00500
Br3946     Br  0.60615056  0.95013761  0.76490097    -0.03300
Br3947     Br  0.65155923  0.94989087  0.77994798    -0.04200
Br3948     Br  0.59585878  0.95264852  0.84182276    -0.00200
C3949       C  0.82263346  0.35942559  0.77000626     0.01200
C3950       C  0.82092165  0.34856138  0.78383786     0.04000
C3951       C  0.80790809  0.35065337  0.79534398    -0.12100
C3952       C  0.79526431  0.36229456  0.79216516     0.23300
C3953       C  0.79517338  0.37106250  0.77697711    -0.12600
C3954       C  0.80871376  0.36964638  0.76579166     0.04700
C3955       C  0.78204746  0.36508671  0.80483492     0.27100
C3956       C  0.76811391  0.35442517  0.80552253    -0.13300
C3957       C  0.75665524  0.35580321  0.81881385     0.05200
C3958       C  0.75949044  0.36750884  0.83195628    -0.09300
C3959       C  0.77264608  0.37930181  0.83010843     0.06000
C3960       C  0.78389665  0.37797244  0.81670535    -0.13600
Br3961     Br  0.77637909  0.38518036  0.77181752    -0.05700
Br3962     Br  0.83451670  0.32891071  0.78559093    -0.00100
Br3963     Br  0.73743552  0.34139616  0.81837136     0.00400
Br3964     Br  0.80235169  0.39344063  0.81480968    -0.04100
Br3965     Br  0.80659365  0.38097908  0.74469002     0.00500
Br3966     Br  0.80758888  0.33781802  0.81575570    -0.03300
Br3967     Br  0.76525635  0.33747420  0.78841768    -0.04200
Br3968     Br  0.77523157  0.39788109  0.84540772    -0.00200
C3969       C  0.85810684  0.27333914  0.66031134     0.01200
C3970       C  0.86858563  0.28757996  0.66145993     0.04000
C3971       C  0.86675519  0.29894043  0.67480321    -0.12100
C3972       C  0.85448469  0.29615813  0.68704476     0.23300
C3973       C  0.84463514  0.28152299  0.68638632    -0.12600
C3974       C  0.84707553  0.26972821  0.67349742     0.04700
C3975       C  0.85236240  0.30852199  0.70077959     0.27100
C3976       C  0.85923650  0.30548022  0.71658615    -0.13300
C3977       C  0.85798491  0.31764354  0.72928494     0.05200
C3978       C  0.85176302  0.33393563  0.72575349    -0.09300
C3979       C  0.84376896  0.33642729  0.70997109     0.06000
C3980       C  0.84390507  0.32357351  0.69778206    -0.13600
Br3981     Br  0.82788976  0.27762462  0.70319199    -0.05700
Br3982     Br  0.88600784  0.29127293  0.64519671    -0.00100
Br3983     Br  0.86314188  0.31080708  0.75181577     0.00400
Br3984     Br  0.83288492  0.32649612  0.67645969    -0.04100
Br3985     Br  0.83759612  0.24759888  0.67552233     0.00500
Br3986     Br  0.88123641  0.31824837  0.67653810    -0.03300
Br3987     Br  0.87102846  0.28480466  0.72061060    -0.04200
Br3988     Br  0.83247794  0.35678773  0.70373322    -0.00200
C3989       C  0.84842337  0.39210934  0.72838508     0.01200
C3990       C  0.83949046  0.40634745  0.73367713     0.04000
C3991       C  0.83522812  0.41882699  0.72208156    -0.12100
C3992       C  0.84123888  0.41792741  0.70555728     0.23300
C3993       C  0.85130655  0.40435565  0.70061422    -0.12600
C3994       C  0.85519497  0.39165906  0.71210825     0.04700
C3995       C  0.83887566  0.43232735  0.69410844     0.27100
C3996       C  0.82619701  0.43207088  0.68197481    -0.13300
C3997       C  0.82441497  0.44562118  0.67086819     0.05200
C3998       C  0.83510671  0.45973733  0.67215165    -0.09300
C3999       C  0.84760445  0.46002389  0.68460079     0.06000
C4000       C  0.84963962  0.44624371  0.69530598    -0.13600
Br4001     Br  0.86020053  0.40350908  0.67822455    -0.05700
Br4002     Br  0.83524281  0.40998414  0.75717501    -0.00100
Br4003     Br  0.80801144  0.44407944  0.65325939     0.00400
Br4004     Br  0.86749021  0.44616931  0.71148832    -0.04100
Br4005     Br  0.87143894  0.37484347  0.70614293     0.00500
Br4006     Br  0.82143204  0.43738779  0.72885296    -0.03300
Br4007     Br  0.81152505  0.41291827  0.68047017    -0.04200
Br4008     Br  0.86165493  0.47949598  0.68764519    -0.00200
C4009       C  0.88664459  0.36399816  0.76993824     0.01200
C4010       C  0.90075594  0.37337907  0.76445787     0.04000
C4011       C  0.91413828  0.37654368  0.77548083    -0.12100
C4012       C  0.91446680  0.36897771  0.79129578     0.23300
C4013       C  0.90215333  0.35725266  0.79551447    -0.12600
C4014       C  0.88877599  0.35419362  0.78458170     0.04700
C4015       C  0.92819278  0.37238429  0.80327027     0.27100
C4016       C  0.94298565  0.36299419  0.80249568    -0.13300
C4017       C  0.95506987  0.36474849  0.81512927     0.05200
C4018       C  0.95213626  0.37546393  0.82894056    -0.09300
C4019       C  0.93765873  0.38546960  0.82921898     0.06000
C4020       C  0.92574856  0.38391742  0.81640034    -0.13600
Br4021     Br  0.90388597  0.34514330  0.81634452    -0.05700
Br4022     Br  0.90399929  0.37890919  0.74117807    -0.00100
Br4023     Br  0.97596219  0.35301069  0.81301528     0.00400
Br4024     Br  0.90557690  0.39697839  0.81713933    -0.04100
Br4025     Br  0.87586662  0.33433365  0.78848157     0.00500
Br4026     Br  0.93222322  0.39107832  0.76895493    -0.03300
Br4027     Br  0.94628903  0.34716256  0.78449142    -0.04200
Br4028     Br  0.93344753  0.40066090  0.84751207    -0.00200
C4029       C  0.76015371  0.63461099  0.83746536     0.01200
C4030       C  0.76513970  0.65077716  0.83159828     0.04000
C4031       C  0.77826082  0.65241892  0.81998757    -0.12100
C4032       C  0.78603302  0.63818664  0.81331237     0.23300
C4033       C  0.78106872  0.62218652  0.81846662    -0.12600
C4034       C  0.76880337  0.62028595  0.83090428     0.04700
C4035       C  0.79947448  0.63998560  0.80069894     0.27100
C4036       C  0.79545139  0.64087391  0.78364609    -0.13300
C4037       C  0.80817079  0.64165936  0.77163101     0.05200
C4038       C  0.82507598  0.64053237  0.77645382    -0.09300
C4039       C  0.82902166  0.64127512  0.79367693     0.06000
C4040       C  0.81623828  0.64076965  0.80574340    -0.13600
Br4041     Br  0.79135977  0.60277144  0.80818192    -0.05700
Br4042     Br  0.75415754  0.67127543  0.83808041    -0.00100
Br4043     Br  0.80220404  0.64574966  0.74874762     0.00400
Br4044     Br  0.82154985  0.64045875  0.82927906    -0.04100
Br4045     Br  0.76584786  0.59768224  0.83917350     0.00500
Br4046     Br  0.78578896  0.67429928  0.81281284    -0.03300
Br4047     Br  0.77242331  0.64027921  0.77676945    -0.04200
Br4048     Br  0.85163383  0.64338671  0.80112091    -0.00200
C4049       C  0.71639626  0.66388577  0.86732508     0.01200
C4050       C  0.71067393  0.67048625  0.85200127     0.04000
C4051       C  0.70017306  0.68458285  0.85185038    -0.12100
C4052       C  0.69491093  0.69193246  0.86698707     0.23300
C4053       C  0.70009863  0.68505543  0.88228882    -0.12600
C4054       C  0.70998985  0.67052246  0.88244242     0.04700
C4055       C  0.68212700  0.70537371  0.86670170     0.27100
C4056       C  0.68677961  0.72215376  0.86417579    -0.13300
C4057       C  0.67451782  0.73460637  0.86236401     0.05200
C4058       C  0.65734692  0.73027441  0.86255126    -0.09300
C4059       C  0.65282963  0.71349071  0.86631356     0.06000
C4060       C  0.66518809  0.70114641  0.86825320    -0.13600
Br4061     Br  0.69267368  0.69497695  0.90302037    -0.05700
Br4062     Br  0.71427732  0.65829004  0.83139224    -0.00100
Br4063     Br  0.68160497  0.75771176  0.86062858     0.00400
Br4064     Br  0.65897222  0.67807250  0.87235221    -0.04100
Br4065     Br  0.71161258  0.65793500  0.90295907     0.00500
Br4066     Br  0.69180771  0.69306951  0.83091251    -0.03300
Br4067     Br  0.71009262  0.72786948  0.86285809    -0.04200
Br4068     Br  0.62997001  0.70656923  0.86837243    -0.00200
C4069       C  0.71289262  0.60217966  0.86722992     0.01200
C4070       C  0.70588957  0.59689167  0.88277089     0.04000
C4071       C  0.69499205  0.58301455  0.88337481    -0.12100
C4072       C  0.69057511  0.57447677  0.86863753     0.23300
C4073       C  0.69627037  0.58038292  0.85316803    -0.12600
C4074       C  0.70592912  0.59507515  0.85237595     0.04700
C4075       C  0.67790836  0.56091110  0.86910589     0.27100
C4076       C  0.68248907  0.54438892  0.87317163    -0.13300
C4077       C  0.67041444  0.53156152  0.87319452     0.05200
C4078       C  0.65384927  0.53518879  0.86873233    -0.09300
C4079       C  0.64926074  0.55172350  0.86474588     0.06000
C4080       C  0.66119799  0.56461835  0.86524222    -0.13600
Br4081     Br  0.68991218  0.56877142  0.83286584    -0.05700
Br4082     Br  0.70833323  0.60993708  0.90310971    -0.00100
Br4083     Br  0.67665876  0.50890846  0.87870166     0.00400
Br4084     Br  0.65465696  0.58744682  0.86077713    -0.04100
Br4085     Br  0.70447352  0.60746184  0.83165868     0.00500
Br4086     Br  0.68520778  0.57608235  0.90432169    -0.03300
Br4087     Br  0.70534744  0.53938919  0.87843528    -0.04200
Br4088     Br  0.62655515  0.55676415  0.85877611    -0.00200
C4089       C  0.76212872  0.63488013  0.89290487     0.01200
C4090       C  0.76336063  0.64975059  0.90268187     0.04000
C4091       C  0.77449995  0.65060121  0.91626446    -0.12100
C4092       C  0.78599385  0.63765821  0.91893740     0.23300
C4093       C  0.78642668  0.62391023  0.90791324    -0.12600
C4094       C  0.77430032  0.62225295  0.89527857     0.04700
C4095       C  0.79780121  0.63867469  0.93321275     0.27100
C4096       C  0.81231379  0.64853775  0.93199083    -0.13300
C4097       C  0.82329074  0.64982120  0.94565948     0.05200
C4098       C  0.81977704  0.64125484  0.96067012    -0.09300
C4099       C  0.80524190  0.63132636  0.96184448     0.06000
C4100       C  0.79432806  0.63000397  0.94811916    -0.13600
Br4101     Br  0.80390708  0.60750325  0.91013132    -0.05700
Br4102     Br  0.75118267  0.66973709  0.89738189    -0.00100
Br4103     Br  0.84350719  0.66276105  0.94344123     0.00400
Br4104     Br  0.77444022  0.61647487  0.94971163    -0.04100
Br4105     Br  0.77548243  0.60310480  0.88064208     0.00500
Br4106     Br  0.77388347  0.66940484  0.93158837    -0.03300
Br4107     Br  0.81715260  0.66017279  0.91145264    -0.04200
Br4108     Br  0.79973432  0.62021547  0.98251807    -0.00200
C4109       C  0.35537485  0.78609330  0.83277817     0.01200
C4110       C  0.33956825  0.78649861  0.82482333     0.04000
C4111       C  0.33583900  0.79903069  0.81304384    -0.12100
C4112       C  0.34795640  0.81089644  0.80852639     0.23300
C4113       C  0.36362411  0.81069704  0.81634260    -0.12600
C4114       C  0.36716182  0.79872613  0.82873145     0.04700
C4115       C  0.34429336  0.82357232  0.79545635     0.27100
C4116       C  0.34489863  0.81902844  0.77848640    -0.13300
C4117       C  0.34219948  0.83115682  0.76609027     0.05200
C4118       C  0.34040904  0.84830688  0.77040840    -0.09300
C4119       C  0.33840025  0.85252534  0.78755555     0.06000
C4120       C  0.34015582  0.84011511  0.79996230    -0.13600
Br4121     Br  0.38018409  0.82713678  0.81013830    -0.05700
Br4122     Br  0.32267453  0.77004334  0.82929488    -0.00100
Br4123     Br  0.33900793  0.82368461  0.74342546     0.00400
Br4124     Br  0.33713013  0.84563688  0.82331297    -0.04100
Br4125     Br  0.38733420  0.80140268  0.84152153     0.00500
Br4126     Br  0.31394366  0.80025136  0.80309436    -0.03300
Br4127     Br  0.34983566  0.79615085  0.77223265    -0.04200
Br4128     Br  0.33325739  0.87492074  0.79474895    -0.00200
C4129       C  0.26338287  0.68296643  0.86416860     0.01200
C4130       C  0.25929488  0.69843423  0.85672780     0.04000
C4131       C  0.27173049  0.71063465  0.85411671    -0.12100
C4132       C  0.28809465  0.70772842  0.85966018     0.23300
C4133       C  0.29199519  0.69263471  0.86782162    -0.12600
C4134       C  0.27953349  0.68060600  0.87067783     0.04700
C4135       C  0.30101598  0.72098707  0.85839276     0.27100
C4136       C  0.31270535  0.72042579  0.84536176    -0.13300
C4137       C  0.32673419  0.73098856  0.84582078     0.05200
C4138       C  0.32901916  0.74241635  0.85930777    -0.09300
C4139       C  0.31650340  0.74391516  0.87157239     0.06000
C4140       C  0.30264453  0.73306385  0.87121680    -0.13600
Br4141     Br  0.31439286  0.68871456  0.87559714    -0.05700
Br4142     Br  0.23632831  0.70402738  0.85261963    -0.00100
Br4143     Br  0.34265703  0.72972202  0.82770957     0.00400
Br4144     Br  0.28634708  0.73391161  0.88890523    -0.04100
Br4145     Br  0.28411581  0.66208535  0.88549566     0.00500
Br4146     Br  0.26634584  0.73159375  0.84351403    -0.03300
Br4147     Br  0.30974528  0.70456407  0.82728926    -0.04200
Br4148     Br  0.31871018  0.75990369  0.88956759    -0.00200
C4149       C  0.39132722  0.74126831  0.86350234     0.01200
C4150       C  0.39102190  0.72701467  0.87434363     0.04000
C4151       C  0.40370321  0.71487728  0.87368436    -0.12100
C4152       C  0.41750820  0.71718357  0.86324480     0.23300
C4153       C  0.41905152  0.73210735  0.85410893    -0.12600
C4154       C  0.40650438  0.74445382  0.85488977     0.04700
C4155       C  0.43119385  0.70463586  0.86329135     0.27100
C4156       C  0.44484818  0.70677391  0.87415998    -0.13300
C4157       C  0.45776081  0.69487030  0.87442167     0.05200
C4158       C  0.45680450  0.68036091  0.86423032    -0.09300
C4159       C  0.44274038  0.67795015  0.85380836     0.06000
C4160       C  0.43018733  0.69022818  0.85309848    -0.13600
Br4161     Br  0.43877865  0.73569767  0.84080302    -0.05700
Br4162     Br  0.37443417  0.72419290  0.89161160    -0.00100
Br4163     Br  0.47695419  0.69890847  0.88841496     0.00400
Br4164     Br  0.41133439  0.68724091  0.83842001    -0.04100
Br4165     Br  0.41265213  0.76665713  0.84785972     0.00500
Br4166     Br  0.40239575  0.69490972  0.88729053    -0.03300
Br4167     Br  0.44556054  0.72590815  0.88902276    -0.04200
Br4168     Br  0.43976865  0.65723858  0.84151147    -0.00200
C4169       C  0.35590451  0.78645101  0.89064703     0.01200
C4170       C  0.35179591  0.80344448  0.88737105     0.04000
C4171       C  0.35065613  0.81517930  0.90061195    -0.12100
C4172       C  0.35438346  0.81035761  0.91708540     0.23300
C4173       C  0.35790709  0.79347515  0.92051046    -0.12600
C4174       C  0.35786295  0.78150394  0.90753954     0.04700
C4175       C  0.35460977  0.82295540  0.93090535     0.27100
C4176       C  0.36840302  0.83367726  0.93298677    -0.13300
C4177       C  0.36884989  0.84531899  0.94630497     0.05200
C4178       C  0.35592577  0.84554651  0.95843885    -0.09300
C4179       C  0.34227154  0.83438207  0.95641903     0.06000
C4180       C  0.34136696  0.82368226  0.94237165    -0.13600
Br4181     Br  0.36327608  0.78682971  0.94307606    -0.05700
Br4182     Br  0.34825368  0.81147763  0.86505384    -0.00100
Br4183     Br  0.38690732  0.86140734  0.94688924     0.00400
Br4184     Br  0.32188511  0.80992039  0.93865409    -0.04100
Br4185     Br  0.35905879  0.75818992  0.91349049     0.00500
Br4186     Br  0.34413268  0.83806838  0.89633669    -0.03300
Br4187     Br  0.38682902  0.83220292  0.91754244    -0.04200
Br4188     Br  0.32515521  0.83250796  0.97326738    -0.00200
C4189       C  0.75484446  0.64247980  0.15970082     0.01200
C4190       C  0.76864130  0.63138734  0.15911109     0.04000
C4191       C  0.77905419  0.62964253  0.17306920    -0.12100
C4192       C  0.77459579  0.63695670  0.18849522     0.23300
C4193       C  0.75973951  0.64623194  0.18971186    -0.12600
C4194       C  0.75035951  0.64974811  0.17523371     0.04700
C4195       C  0.78623487  0.63585911  0.20293501     0.27100
C4196       C  0.79009072  0.62017071  0.20998863    -0.13300
C4197       C  0.80457568  0.61844698  0.21971156     0.05200
C4198       C  0.81326074  0.63285973  0.22530995    -0.09300
C4199       C  0.80774612  0.64878755  0.22024663     0.06000
C4200       C  0.79520347  0.65020334  0.20809622    -0.13600
Br4201     Br  0.75247164  0.65430997  0.21128603    -0.05700
Br4202     Br  0.77270593  0.61701728  0.13991674    -0.00100
Br4203     Br  0.81404644  0.59640118  0.22234354     0.00400
Br4204     Br  0.79198049  0.67141170  0.19698073    -0.04100
Br4205     Br  0.73220091  0.66539300  0.17690473     0.00500
Br4206     Br  0.79996044  0.61790694  0.17059780    -0.03300
Br4207     Br  0.77635584  0.60085863  0.20512056    -0.04200
Br4208     Br  0.81852866  0.66864473  0.22856923    -0.00200
C4209       C  0.75269391  0.65286404  0.09740757     0.01200
C4210       C  0.76713724  0.66323246  0.09742651     0.04000
C4211       C  0.77884492  0.66185124  0.08441997    -0.12100
C4212       C  0.77571740  0.65104856  0.07083689     0.23300
C4213       C  0.76008429  0.64330459  0.06927899    -0.12600
C4214       C  0.74824121  0.64516349  0.08203619     0.04700
C4215       C  0.78853717  0.64851546  0.05779848     0.27100
C4216       C  0.78773247  0.65751058  0.04274098    -0.13300
C4217       C  0.79991133  0.65505234  0.03038498     0.05200
C4218       C  0.81351349  0.64425308  0.03340075    -0.09300
C4219       C  0.81409673  0.63503235  0.04844084     0.06000
C4220       C  0.80155115  0.63708898  0.06053351    -0.13600
Br4221     Br  0.75490894  0.63004742  0.04967909    -0.05700
Br4222     Br  0.77023367  0.68086119  0.11378842    -0.00100
Br4223     Br  0.79736465  0.66596745  0.00901883     0.00400
Br4224     Br  0.80235248  0.62466036  0.08119053    -0.04100
Br4225     Br  0.72535478  0.64110073  0.07639711     0.00500
Br4226     Br  0.79929966  0.67459553  0.08516780    -0.03300
Br4227     Br  0.77021176  0.67366067  0.03935206    -0.04200
Br4228     Br  0.83239834  0.62026814  0.05317074    -0.00200
C4229       C  0.71342073  0.61535880  0.13166949     0.01200
C4230       C  0.70037781  0.61174820  0.12025101     0.04000
C4231       C  0.68981531  0.59794115  0.12282351    -0.12100
C4232       C  0.69172702  0.58795428  0.13708316     0.23300
C4233       C  0.70449303  0.59138687  0.14856639    -0.12600
C4234       C  0.71537496  0.60495852  0.14587544     0.04700
C4235       C  0.67966836  0.57435610  0.14034923     0.27100
C4236       C  0.66559201  0.57757230  0.15031952    -0.13300
C4237       C  0.65332901  0.56515076  0.15227231     0.05200
C4238       C  0.65504055  0.54959923  0.14401539    -0.09300
C4239       C  0.66946833  0.54619377  0.13457527     0.06000
C4240       C  0.68180600  0.55855305  0.13279627    -0.13600
Br4241     Br  0.70679775  0.57740641  0.16810633    -0.05700
Br4242     Br  0.69527326  0.62661039  0.10208523    -0.00100
Br4243     Br  0.63379793  0.56983736  0.16550586     0.00400
Br4244     Br  0.70153668  0.55405258  0.11980473    -0.04100
Br4245     Br  0.73285012  0.60854961  0.16184252     0.00500
Br4246     Br  0.67222442  0.59287160  0.10707733    -0.03300
Br4247     Br  0.66290744  0.59925963  0.16077290    -0.04200
Br4248     Br  0.67264187  0.52445838  0.12448929    -0.00200
C4249       C  0.31578118  0.74448042  0.13299165     0.01200
C4250       C  0.31258688  0.73211765  0.12055582     0.04000
C4251       C  0.29974478  0.72029367  0.12265943    -0.12100
C4252       C  0.29044824  0.72000543  0.13750503     0.23300
C4253       C  0.29307128  0.73243990  0.14972840    -0.12600
C4254       C  0.30551666  0.74475137  0.14743545     0.04700
C4255       C  0.27918828  0.70553841  0.14068511     0.27100
C4256       C  0.26225044  0.70634720  0.13656711    -0.13300
C4257       C  0.25228414  0.69182382  0.13740985     0.05200
C4258       C  0.25958466  0.67587433  0.14048473    -0.09300
C4259       C  0.27645517  0.67546658  0.14583220     0.06000
C4260       C  0.28594819  0.69036987  0.14639646    -0.13600
Br4261     Br  0.27974380  0.73220018  0.16979622    -0.05700
Br4262     Br  0.32699345  0.72931594  0.10157239    -0.00100
Br4263     Br  0.22850608  0.69446190  0.13533583     0.00400
Br4264     Br  0.30869186  0.69011427  0.15426484    -0.04100
Br4265     Br  0.30788457  0.76187026  0.16424227     0.00500
Br4266     Br  0.29517246  0.70380612  0.10542984    -0.03300
Br4267     Br  0.25297113  0.72724383  0.12889109    -0.04200
Br4268     Br  0.28761578  0.65492991  0.15152276    -0.00200
C4269       C  0.37356816  0.74172488  0.14048052     0.01200
C4270       C  0.38991786  0.74720837  0.14433412     0.04000
C4271       C  0.40256901  0.73552108  0.14782501    -0.12100
C4272       C  0.39942117  0.71818869  0.14641507     0.23300
C4273       C  0.38312723  0.71262321  0.14289355    -0.12600
C4274       C  0.37013813  0.72431163  0.14072110     0.04700
C4275       C  0.41344628  0.70599390  0.14800655     0.27100
C4276       C  0.42511346  0.70440315  0.13496464    -0.13300
C4277       C  0.43917796  0.69404636  0.13683011     0.05200
C4278       C  0.44108917  0.68398263  0.15127639    -0.09300
C4279       C  0.42895059  0.68516657  0.16411841     0.06000
C4280       C  0.41553537  0.69650047  0.16267133    -0.13600
Br4281     Br  0.37880769  0.68893517  0.14017358    -0.05700
Br4282     Br  0.39519059  0.77077609  0.14534907    -0.00100
Br4283     Br  0.45628082  0.69484830  0.11988041     0.00400
Br4284     Br  0.39997949  0.69920766  0.18086097    -0.04100
Br4285     Br  0.34784361  0.71607609  0.13807317     0.00500
Br4286     Br  0.42441577  0.74319214  0.15447269    -0.03300
Br4287     Br  0.42161035  0.71635682  0.11431557    -0.04200
Br4288     Br  0.42980717  0.67070338  0.18339302    -0.00200
C4289       C  0.34196888  0.78581307  0.16439837     0.01200
C4290       C  0.33032199  0.79916915  0.16553309     0.04000
C4291       C  0.32944173  0.80910031  0.18009706    -0.12100
C4292       C  0.33984293  0.80564510  0.19375402     0.23300
C4293       C  0.35019661  0.79146825  0.19337507    -0.12600
C4294       C  0.35131671  0.78156638  0.17877765     0.04700
C4295       C  0.34136542  0.81794326  0.20766458     0.27100
C4296       C  0.35390364  0.83027140  0.20691077    -0.13300
C4297       C  0.35603215  0.84166404  0.22018078     0.05200
C4298       C  0.34549483  0.84089554  0.23432170    -0.09300
C4299       C  0.33247245  0.82899353  0.23472284     0.06000
C4300       C  0.33054743  0.81739854  0.22149402    -0.13600
Br4301     Br  0.36340140  0.78619393  0.21282139    -0.05700
Br4302     Br  0.31491824  0.80375129  0.14752461    -0.00100
Br4303     Br  0.37281269  0.85898137  0.21831630     0.00400
Br4304     Br  0.31332686  0.80054258  0.22232901    -0.04100
Br4305     Br  0.36647074  0.76294460  0.17871348     0.00500
Br4306     Br  0.31442385  0.82792943  0.18126592    -0.03300
Br4307     Br  0.36816661  0.83152952  0.18751987    -0.04200
Br4308     Br  0.31745809  0.82823429  0.25343522    -0.00200
C4309       C  0.35289801  0.78757007  0.10196176     0.01200
C4310       C  0.34581724  0.78416092  0.08600080     0.04000
C4311       C  0.34595130  0.79638642  0.07338399    -0.12100
C4312       C  0.35540732  0.81107149  0.07537771     0.23300
C4313       C  0.36498441  0.81330668  0.08990757    -0.12600
C4314       C  0.36401604  0.80156432  0.10302729     0.04700
C4315       C  0.35643378  0.82340602  0.06153638     0.27100
C4316       C  0.36677476  0.82022346  0.04764722    -0.13300
C4317       C  0.36722625  0.83153263  0.03419398     0.05200
C4318       C  0.35756874  0.84627420  0.03472592    -0.09300
C4319       C  0.34781384  0.84981221  0.04901215     0.06000
C4320       C  0.34704675  0.83826584  0.06223638    -0.13600
Br4321     Br  0.37965233  0.83250550  0.09155097    -0.05700
Br4322     Br  0.34074105  0.76169871  0.07891968    -0.00100
Br4323     Br  0.38056602  0.82636623  0.01478737     0.00400
Br4324     Br  0.33307955  0.84271026  0.08135812    -0.04100
Br4325     Br  0.37964359  0.80418111  0.12120389     0.00500
Br4326     Br  0.33347373  0.79280813  0.05299811    -0.03300
Br4327     Br  0.38031863  0.80028566  0.04710811    -0.04200
Br4328     Br  0.33628576  0.87095341  0.05108377    -0.00200
C4329       C  0.11729463  0.33229313  0.72484458     0.01200
C4330       C  0.10372307  0.32824549  0.71417042     0.04000
C4331       C  0.10465864  0.31476360  0.70288620    -0.12100
C4332       C  0.11977234  0.30641672  0.70045739     0.23300
C4333       C  0.13374744  0.31089833  0.71006217    -0.12600
C4334       C  0.13249121  0.32343778  0.72251159     0.04700
C4335       C  0.12102275  0.29343825  0.68719276     0.27100
C4336       C  0.12048321  0.27636802  0.69137979    -0.13300
C4337       C  0.12162016  0.26409279  0.67875848     0.05200
C4338       C  0.12303939  0.26877801  0.66175764    -0.09300
C4339       C  0.12168151  0.28594901  0.65760489     0.06000
C4340       C  0.12153164  0.29822597  0.67029443    -0.13600
Br4341     Br  0.15469732  0.29981473  0.70584002    -0.05700
Br4342     Br  0.08461577  0.34241233  0.71240546    -0.00100
Br4343     Br  0.11948745  0.24091682  0.68491833     0.00400
Br4344     Br  0.12229204  0.32175956  0.66461170    -0.04100
Br4345     Br  0.15197621  0.32777704  0.73587672     0.00500
Br4346     Br  0.08518492  0.30774775  0.69039170    -0.03300
Br4347     Br  0.11797817  0.26991199  0.71449062    -0.04200
Br4348     Br  0.11875737  0.29316247  0.63494226    -0.00200
C4349       C  0.12129416  0.38869318  0.72237542     0.01200
C4350       C  0.13755569  0.39473937  0.71836880     0.04000
C4351       C  0.13946268  0.40878668  0.70789400    -0.12100
C4352       C  0.12555762  0.41605949  0.70023925     0.23300
C4353       C  0.10977522  0.40887099  0.70228629    -0.12600
C4354       C  0.10756005  0.39532313  0.71324020     0.04700
C4355       C  0.12748669  0.43125180  0.68983998     0.27100
C4356       C  0.12333887  0.44708910  0.69650457    -0.13300
C4357       C  0.12397514  0.46137193  0.68628441     0.05200
C4358       C  0.12954655  0.45993736  0.66964963    -0.09300
C4359       C  0.13468904  0.44425846  0.66333732     0.06000
C4360       C  0.13305655  0.42983386  0.67321241    -0.13600
Br4361     Br  0.09113852  0.41784777  0.68992230    -0.05700
Br4362     Br  0.15784561  0.38430176  0.72588162    -0.00100
Br4363     Br  0.11737827  0.48290732  0.69507883     0.00400
Br4364     Br  0.13758120  0.40801795  0.66374053    -0.04100
Br4365     Br  0.08554257  0.38557556  0.71430380     0.00500
Br4366     Br  0.16119191  0.41859486  0.70417447    -0.03300
Br4367     Br  0.11650288  0.44905725  0.71955429    -0.04200
Br4368     Br  0.14361313  0.44241748  0.64102484    -0.00200
C4369       C  0.14839377  0.36087414  0.76743715     0.01200
C4370       C  0.15695462  0.37620268  0.76977245     0.04000
C4371       C  0.17189334  0.37666832  0.77889199    -0.12100
C4372       C  0.17733239  0.36232213  0.78748843     0.23300
C4373       C  0.16836326  0.34720231  0.78600351    -0.12600
C4374       C  0.15381510  0.34651052  0.77619038     0.04700
C4375       C  0.19074433  0.36400775  0.80016731     0.27100
C4376       C  0.20714652  0.35902543  0.79652027    -0.13300
C4377       C  0.21985517  0.36152395  0.80843782     0.05200
C4378       C  0.21612578  0.36887266  0.82409059    -0.09300
C4379       C  0.20006266  0.37532441  0.82694540     0.06000
C4380       C  0.18720862  0.37198292  0.81551997    -0.13600
Br4381     Br  0.17545267  0.32779462  0.79840135    -0.05700
Br4382     Br  0.14652402  0.39719055  0.76405367    -0.00100
Br4383     Br  0.24267063  0.35702276  0.80243083     0.00400
Br4384     Br  0.16475163  0.37878852  0.82072956    -0.04100
Br4385     Br  0.13997311  0.32667191  0.77703028     0.00500
Br4386     Br  0.18438935  0.39733413  0.78063771    -0.03300
Br4387     Br  0.21223003  0.34953473  0.77491350    -0.04200
Br4388     Br  0.19620823  0.39115827  0.84489876    -0.00200
C4389       C  0.02366967  0.37416127  0.83283531     0.01200
C4390       C  0.02365436  0.38485233  0.81879447     0.04000
C4391       C  0.03635960  0.38358066  0.80680972    -0.12100
C4392       C  0.04875549  0.37127799  0.80845580     0.23300
C4393       C  0.04879133  0.36052114  0.82230302    -0.12600
C4394       C  0.03649015  0.36214458  0.83466861     0.04700
C4395       C  0.06182252  0.36976004  0.79556772     0.27100
C4396       C  0.05892185  0.36003520  0.78121225    -0.13300
C4397       C  0.07089352  0.35942156  0.76841346     0.05200
C4398       C  0.08676016  0.36706163  0.77069890    -0.09300
C4399       C  0.08841554  0.37873188  0.78420179     0.06000
C4400       C  0.07632201  0.37947487  0.79685670    -0.13600
Br4401     Br  0.06574040  0.34351939  0.82415246    -0.05700
Br4402     Br  0.00576813  0.40053716  0.81514514    -0.00100
Br4403     Br  0.06292174  0.35269184  0.74676703     0.00400
Br4404     Br  0.07940130  0.39395346  0.81606893    -0.04100
Br4405     Br  0.03794616  0.34835229  0.85442903     0.00500
Br4406     Br  0.03681699  0.39858457  0.78793497    -0.03300
Br4407     Br  0.03805220  0.34809941  0.77889929    -0.04200
Br4408     Br  0.10600799  0.39534104  0.78490367    -0.00200
C4409       C  0.62655990  0.16640592  0.77145083     0.01200
C4410       C  0.62597942  0.18345983  0.76661726     0.04000
C4411       C  0.62621994  0.19629190  0.77872452    -0.12100
C4412       C  0.62774817  0.19230449  0.79576316     0.23300
C4413       C  0.63050579  0.17554192  0.80048497    -0.12600
C4414       C  0.63012590  0.16260786  0.78836108     0.04700
C4415       C  0.62565609  0.20568886  0.80863162     0.27100
C4416       C  0.63854191  0.21725220  0.81186053    -0.13300
C4417       C  0.63582395  0.23102250  0.82264130     0.05200
C4418       C  0.62037086  0.23288868  0.83094493    -0.09300
C4419       C  0.60798599  0.22035246  0.82870713     0.06000
C4420       C  0.61041729  0.20722167  0.81716018    -0.13600
Br4421     Br  0.63414739  0.17038175  0.82376304    -0.05700
Br4422     Br  0.62556902  0.18947389  0.74327629    -0.00100
Br4423     Br  0.65336602  0.24727127  0.82542687     0.00400
Br4424     Br  0.59271301  0.19134279  0.81283173    -0.04100
Br4425     Br  0.63457398  0.14003835  0.79538454     0.00500
Br4426     Br  0.62357812  0.21936709  0.77201415    -0.03300
Br4427     Br  0.65994151  0.21409258  0.80137087    -0.04200
Br4428     Br  0.58838874  0.21979193  0.84273696    -0.00200
C4429       C  0.62123012  0.10822414  0.76826601     0.01200
C4430       C  0.63397277  0.09633821  0.76553647     0.04000
C4431       C  0.63560211  0.08237098  0.77619923    -0.12100
C4432       C  0.62460595  0.08020389  0.78972107     0.23300
C4433       C  0.61204208  0.09209100  0.79262715    -0.12600
C4434       C  0.61048883  0.10612494  0.78214106     0.04700
C4435       C  0.62641480  0.06571320  0.80126513     0.27100
C4436       C  0.61739422  0.05079328  0.79837232    -0.13300
C4437       C  0.61823550  0.03751232  0.80991086     0.05200
C4438       C  0.62796860  0.03915022  0.82452750    -0.09300
C4439       C  0.63704735  0.05408498  0.82737605     0.06000
C4440       C  0.63637307  0.06725583  0.81570458    -0.13600
Br4441     Br  0.59692589  0.08903637  0.81113589    -0.05700
Br4442     Br  0.64916682  0.09881990  0.74716534    -0.00100
Br4443     Br  0.60637236  0.01689029  0.80545269     0.00400
Br4444     Br  0.64874522  0.08767924  0.81961685    -0.04100
Br4445     Br  0.59450640  0.12311920  0.78797526     0.00500
Br4446     Br  0.65276975  0.06597101  0.77227835    -0.03300
Br4447     Br  0.60365030  0.04876267  0.77869176    -0.04200
Br4448     Br  0.64948531  0.05702899  0.84783717    -0.00200
C4449       C  0.58643383  0.14391160  0.72812757     0.01200
C4450       C  0.58605698  0.15357790  0.71319372     0.04000
C4451       C  0.57234060  0.15245946  0.70227402    -0.12100
C4452       C  0.55810921  0.14334733  0.70692000     0.23300
C4453       C  0.55706682  0.13669299  0.72310055    -0.12600
C4454       C  0.57090584  0.13758643  0.73392088     0.04700
C4455       C  0.54411503  0.14130231  0.69489767     0.27100
C4456       C  0.53149465  0.15343524  0.69393625    -0.13300
C4457       C  0.51911832  0.15223263  0.68147622     0.05200
C4458       C  0.51931768  0.13880613  0.66973519    -0.09300
C4459       C  0.53164675  0.12619664  0.67138907     0.06000
C4460       C  0.54393040  0.12750879  0.68390819    -0.13600
Br4461     Br  0.53650693  0.12650117  0.73038581    -0.05700
Br4462     Br  0.60247595  0.17073492  0.70869993    -0.00100
Br4463     Br  0.50163891  0.16882580  0.68128745     0.00400
Br4464     Br  0.56090986  0.11053484  0.68597120    -0.04100
Br4465     Br  0.56702342  0.13335928  0.75723055     0.00500
Br4466     Br  0.57297131  0.16338035  0.68078811    -0.03300
Br4467     Br  0.53133726  0.17176218  0.70979835    -0.04200
Br4468     Br  0.53267979  0.10732564  0.65625730    -0.00200
C4469       C  0.71257499  0.13837862  0.33094308     0.01200
C4470       C  0.69524922  0.14055946  0.33326031     0.04000
C4471       C  0.68446924  0.14139473  0.31936381    -0.12100
C4472       C  0.69089765  0.14129730  0.30298746     0.23300
C4473       C  0.70819469  0.14031513  0.30057656    -0.12600
C4474       C  0.71895374  0.13851898  0.31439862     0.04700
C4475       C  0.67934696  0.14238632  0.28840333     0.27100
C4476       C  0.67477861  0.12781578  0.27943444    -0.13300
C4477       C  0.66257727  0.12862319  0.26676644     0.05200
C4478       C  0.65406330  0.14376325  0.26373133    -0.09300
C4479       C  0.65904182  0.15844608  0.27241419     0.06000
C4480       C  0.67203336  0.15784054  0.28423446    -0.13600
Br4481     Br  0.71706304  0.14159497  0.27820133    -0.05700
Br4482     Br  0.68576527  0.14239452  0.35522402    -0.00100
Br4483     Br  0.65691669  0.10868445  0.25437314     0.00400
Br4484     Br  0.67949295  0.17807892  0.29527094    -0.04100
Br4485     Br  0.74253772  0.13710081  0.31035162     0.00500
Br4486     Br  0.66066150  0.14210591  0.32266864    -0.03300
Br4487     Br  0.68442249  0.10652605  0.28537622    -0.04200
Br4488     Br  0.64743932  0.17930441  0.26893590    -0.00200
C4489       C  0.71080863  0.13929278  0.38981752     0.01200
C4490       C  0.69883647  0.12697480  0.39424332     0.04000
C4491       C  0.68863663  0.12921574  0.40835364    -0.12100
C4492       C  0.68988105  0.14394023  0.41797997     0.23300
C4493       C  0.70071731  0.15683568  0.41296526    -0.12600
C4494       C  0.71113215  0.15459888  0.39893626     0.04700
C4495       C  0.67975773  0.14570212  0.43342042     0.27100
C4496       C  0.66423176  0.15381454  0.43288343    -0.13300
C4497       C  0.65412182  0.15435345  0.44723414     0.05200
C4498       C  0.65921056  0.14614708  0.46197925    -0.09300
C4499       C  0.67497413  0.13850928  0.46266322     0.06000
C4500       C  0.68531444  0.13846753  0.44846375    -0.13600
Br4501     Br  0.70132511  0.17750451  0.42563981    -0.05700
Br4502     Br  0.69505434  0.10754719  0.38031972    -0.00100
Br4503     Br  0.63297041  0.16571693  0.44634072     0.00400
Br4504     Br  0.70696980  0.12816202  0.44940161    -0.04100
Br4505     Br  0.72577102  0.17268596  0.39292056     0.00500
Br4506     Br  0.67276374  0.11210932  0.41461314    -0.03300
Br4507     Br  0.65652534  0.16344729  0.41220459    -0.04200
Br4508     Br  0.68247825  0.12839484  0.48317772    -0.00200
C4509       C  0.75423872  0.16651380  0.36281000     0.01200
C4510       C  0.75231738  0.17890122  0.35038011     0.04000
C4511       C  0.76315032  0.19285356  0.34997563    -0.12100
C4512       C  0.77627153  0.19424171  0.36160637     0.23300
C4513       C  0.77754056  0.18252073  0.37464582    -0.12600
C4514       C  0.76624321  0.16906857  0.37559062     0.04700
C4515       C  0.78940336  0.20729332  0.35955522     0.27100
C4516       C  0.80165180  0.20528541  0.34718652    -0.13300
C4517       C  0.81459988  0.21709945  0.34564515     0.05200
C4518       C  0.81639020  0.23038925  0.35740657    -0.09300
C4519       C  0.80386664  0.23229779  0.36983300     0.06000
C4520       C  0.79018859  0.22116456  0.37043248    -0.13600
Br4521     Br  0.79548025  0.18426087  0.39066384    -0.05700
Br4522     Br  0.73571820  0.17655183  0.33318223    -0.00100
Br4523     Br  0.82907654  0.21506543  0.32662658     0.00400
Br4524     Br  0.77251362  0.22453423  0.38647391    -0.04100
Br4525     Br  0.76718484  0.15436198  0.39475518     0.00500
Br4526     Br  0.76060904  0.20978978  0.33300983    -0.03300
Br4527     Br  0.80099976  0.18582486  0.33265827    -0.04200
Br4528     Br  0.80545039  0.24892013  0.38724377    -0.00200
C4529       C  0.81199159  0.03413617  0.36104322     0.01200
C4530       C  0.81452786  0.04711053  0.37296645     0.04000
C4531       C  0.80314121  0.06044351  0.37415465    -0.12100
C4532       C  0.78960203  0.06128134  0.36306808     0.23300
C4533       C  0.78698976  0.04842811  0.35123007    -0.12600
C4534       C  0.79795351  0.03475902  0.35036948     0.04700
C4535       C  0.77845217  0.07605504  0.36314556     0.27100
C4536       C  0.76315374  0.07532822  0.37149878    -0.13300
C4537       C  0.75143646  0.08824795  0.36949707     0.05200
C4538       C  0.75576115  0.10327878  0.36095332    -0.09300
C4539       C  0.77071390  0.10301961  0.35125875     0.06000
C4540       C  0.78209649  0.08972394  0.35279998    -0.13600
Br4541     Br  0.76841149  0.04980872  0.33595735    -0.05700
Br4542     Br  0.83418871  0.04764927  0.38688453    -0.00100
Br4543     Br  0.72871154  0.08246967  0.37432793     0.00400
Br4544     Br  0.80273481  0.08981854  0.34035447    -0.04100
Br4545     Br  0.79311760  0.01673196  0.33485053     0.00500
Br4546     Br  0.80609898  0.07781397  0.39077944    -0.03300
Br4547     Br  0.75806512  0.05605552  0.38516518    -0.04200
Br4548     Br  0.77528363  0.11930230  0.33399480    -0.00200
C4549       C  0.14864645  0.76294263  0.63532548     0.01200
C4550       C  0.15408049  0.77102762  0.65011172     0.04000
C4551       C  0.16820512  0.78146037  0.64986168    -0.12100
C4552       C  0.17667354  0.78431627  0.63473667     0.23300
C4553       C  0.17228448  0.77498559  0.62037991    -0.12600
C4554       C  0.15858165  0.76390567  0.62085315     0.04700
C4555       C  0.18894799  0.79828721  0.63371616     0.27100
C4556       C  0.18318967  0.81490070  0.63314394    -0.13300
C4557       C  0.19450025  0.82841750  0.63378966     0.05200
C4558       C  0.21190202  0.82549350  0.63270365    -0.09300
C4559       C  0.21752057  0.80870330  0.63407829     0.06000
C4560       C  0.20610762  0.79523414  0.63480421    -0.13600
Br4561     Br  0.18432641  0.77829723  0.59981518    -0.05700
Br4562     Br  0.14202462  0.76814646  0.67074177    -0.00100
Br4563     Br  0.18535738  0.85020340  0.63829734     0.00400
Br4564     Br  0.21380954  0.77253517  0.63775929    -0.04100
Br4565     Br  0.15346444  0.75023307  0.60170913     0.00500
Br4566     Br  0.17546402  0.79270947  0.67001452    -0.03300
Br4567     Br  0.15953736  0.81906183  0.63140235    -0.04200
Br4568     Br  0.24069586  0.80399921  0.63726938    -0.00200
C4569       C  0.08598510  0.77082647  0.63911523     0.01200
C4570       C  0.08727101  0.78653481  0.64757209     0.04000
C4571       C  0.07416148  0.79820113  0.64680487    -0.12100
C4572       C  0.05926831  0.79406183  0.63852564     0.23300
C4573       C  0.05710755  0.77787186  0.63189681    -0.12600
C4574       C  0.06985718  0.76593070  0.63337064     0.04700
C4575       C  0.04519445  0.80609541  0.63857135     0.27100
C4576       C  0.03217802  0.80421519  0.65020674    -0.13300
C4577       C  0.01891448  0.81568725  0.65047657     0.05200
C4578       C  0.01908827  0.82976587  0.63977223    -0.09300
C4579       C  0.03241169  0.83178506  0.62835155     0.06000
C4580       C  0.04510430  0.81968653  0.62742813    -0.13600
Br4581     Br  0.03642275  0.77199517  0.62097525    -0.05700
Br4582     Br  0.10527018  0.79144076  0.66282104    -0.00100
Br4583     Br  0.00022302  0.81139979  0.66503793     0.00400
Br4584     Br  0.06255588  0.82169814  0.61097809    -0.04100
Br4585     Br  0.06334154  0.74261484  0.63116914     0.00500
Br4586     Br  0.07633120  0.81989170  0.65750164    -0.03300
Br4587     Br  0.03275077  0.78601693  0.66605736    -0.04200
Br4588     Br  0.03427568  0.85168546  0.61478176    -0.00200
C4589       C  0.11456621  0.72409030  0.60665481     0.01200
C4590       C  0.11491540  0.70656569  0.60922565     0.04000
C4591       C  0.11519297  0.69547846  0.59545850    -0.12100
C4592       C  0.11575133  0.70178947  0.57904510     0.23300
C4593       C  0.11597586  0.71922460  0.57642515    -0.12600
C4594       C  0.11483016  0.73034984  0.59008035     0.04700
C4595       C  0.11560905  0.69011788  0.56447720     0.27100
C4596       C  0.13005412  0.68125513  0.56011197    -0.13300
C4597       C  0.12973254  0.66959006  0.54684418     0.05200
C4598       C  0.11529426  0.66788725  0.53662024    -0.09300
C4599       C  0.10094418  0.67742021  0.54079717     0.06000
C4600       C  0.10098487  0.68791353  0.55502884    -0.13600
Br4601     Br  0.11794619  0.72781144  0.55396519    -0.05700
Br4602     Br  0.11376178  0.69744665  0.63146386    -0.00100
Br4603     Br  0.14890645  0.65518372  0.54421936     0.00400
Br4604     Br  0.08085158  0.69922479  0.56187892    -0.04100
Br4605     Br  0.11346800  0.75413926  0.58562429     0.00500
Br4606     Br  0.11425378  0.67154488  0.59899331    -0.03300
Br4607     Br  0.15039512  0.68525225  0.57243737    -0.04200
Br4608     Br  0.08112324  0.67702574  0.52708516    -0.00200
C4609       C  0.71590195  0.34252748  0.13680352     0.01200
C4610       C  0.70176367  0.33967800  0.14710638     0.04000
C4611       C  0.69159221  0.32551287  0.14459882    -0.12100
C4612       C  0.69594159  0.31338845  0.13261433     0.23300
C4613       C  0.71135322  0.31455006  0.12445374    -0.12600
C4614       C  0.72168927  0.32872630  0.12697359     0.04700
C4615       C  0.68393310  0.29978514  0.12843316     0.27100
C4616       C  0.68284759  0.28532407  0.13840431    -0.13300
C4617       C  0.66919078  0.27429529  0.13665639     0.05200
C4618       C  0.65656966  0.27774310  0.12484960    -0.09300
C4619       C  0.65885994  0.29120282  0.11355204     0.06000
C4620       C  0.67238814  0.30225138  0.11548180    -0.13600
Br4621     Br  0.71790362  0.29670203  0.10944905    -0.05700
Br4622     Br  0.69692524  0.35410983  0.16594347    -0.00100
Br4623     Br  0.66750869  0.25535304  0.15136689     0.00400
Br4624     Br  0.67462031  0.32147116  0.10104234    -0.04100
Br4625     Br  0.74399183  0.32725477  0.11826694     0.00500
Br4626     Br  0.67117037  0.32300003  0.15710152    -0.03300
Br4627     Br  0.69966399  0.28131218  0.15510829    -0.04200
Br4628     Br  0.64335733  0.29488441  0.09546800    -0.00200
C4629       C  0.70887304  0.40667710  0.13468761     0.01200
C4630       C  0.71411320  0.42266369  0.14089891     0.04000
C4631       C  0.70263506  0.43590859  0.14248173    -0.12100
C4632       C  0.68627426  0.43403430  0.13656871     0.23300
C4633       C  0.68173988  0.41927115  0.12802840    -0.12600
C4634       C  0.69324463  0.40606640  0.12622381     0.04700
C4635       C  0.67435095  0.44824049  0.13807123     0.27100
C4636       C  0.66596273  0.45108615  0.15318915    -0.13300
C4637       C  0.65573409  0.46530045  0.15521677     0.05200
C4638       C  0.65231015  0.47601433  0.14136535    -0.09300
C4639       C  0.66060155  0.47263093  0.12593180     0.06000
C4640       C  0.67202540  0.45928147  0.12464467    -0.13600
Br4641     Br  0.65974349  0.41738838  0.11844719    -0.05700
Br4642     Br  0.73734924  0.42831276  0.14399964    -0.00100
Br4643     Br  0.64723007  0.46953285  0.17746621     0.00400
Br4644     Br  0.68499887  0.45616870  0.10451446    -0.04100
Br4645     Br  0.68841845  0.38924494  0.10934791     0.00500
Br4646     Br  0.70943297  0.45711277  0.15216686    -0.03300
Br4647     Br  0.66852955  0.43512105  0.17111919    -0.04200
Br4648     Br  0.65718030  0.48602474  0.10613045    -0.00200
C4649       C  0.75717448  0.37419628  0.16193268     0.01200
C4650       C  0.77405398  0.37108830  0.15755827     0.04000
C4651       C  0.78640715  0.37017581  0.17000105    -0.12100
C4652       C  0.78214527  0.37151380  0.18697382     0.23300
C4653       C  0.76544355  0.37377933  0.19157886    -0.12600
C4654       C  0.75298759  0.37500146  0.17920485     0.04700
C4655       C  0.79539470  0.36992611  0.19984055     0.27100
C4656       C  0.80202147  0.35402219  0.20344489    -0.13300
C4657       C  0.81661706  0.35267298  0.21305096     0.05200
C4658       C  0.82407227  0.36717091  0.22004450    -0.09300
C4659       C  0.81649736  0.38289885  0.21766448     0.06000
C4660       C  0.80251161  0.38435331  0.20716433    -0.13600
Br4661     Br  0.75977310  0.37513461  0.21500411    -0.05700
Br4662     Br  0.78124752  0.36780429  0.13485793    -0.00100
Br4663     Br  0.82658141  0.33091701  0.21605220     0.00400
Br4664     Br  0.79373077  0.40619498  0.20188812    -0.04100
Br4665     Br  0.73014205  0.37633837  0.18646785     0.00500
Br4666     Br  0.80956260  0.36742785  0.16387180    -0.03300
Br4667     Br  0.79140132  0.33416055  0.19451257    -0.04200
Br4668     Br  0.82549947  0.40259495  0.22821010    -0.00200
C4669       C  0.75343355  0.37624176  0.10380898     0.01200
C4670       C  0.76669251  0.38781646  0.10212407     0.04000
C4671       C  0.77812819  0.38606010  0.08893593    -0.12100
C4672       C  0.77643781  0.37271210  0.07746399     0.23300
C4673       C  0.76255475  0.36193109  0.07846202    -0.12600
C4674       C  0.75059785  0.36433977  0.09107002     0.04700
C4675       C  0.78880285  0.37060845  0.06385141     0.27100
C4676       C  0.78550608  0.37713549  0.04785796    -0.13300
C4677       C  0.79742015  0.37561027  0.03508451     0.05200
C4678       C  0.81280918  0.36782534  0.03832992    -0.09300
C4679       C  0.81600647  0.36103734  0.05424565     0.06000
C4680       C  0.80401715  0.36245831  0.06700198    -0.13600
Br4681     Br  0.75988276  0.34395982  0.06247556    -0.05700
Br4682     Br  0.76909765  0.40636507  0.11758118    -0.00100
Br4683     Br  0.79247384  0.38379907  0.01296179     0.00400
Br4684     Br  0.80853568  0.35369581  0.08897524    -0.04100
Br4685     Br  0.72911932  0.35368979  0.08909254     0.00500
Br4686     Br  0.79600418  0.40206072  0.08635611    -0.03300
Br4687     Br  0.76484894  0.38864757  0.04364872    -0.04200
Br4688     Br  0.83709392  0.35051373  0.05880864    -0.00200
C4689       C  0.64703890  0.73727887  0.14067847     0.01200
C4690       C  0.65247947  0.73027972  0.12534979     0.04000
C4691       C  0.66559242  0.71863010  0.12509954    -0.12100
C4692       C  0.67252252  0.71294168  0.14020006     0.23300
C4693       C  0.66634035  0.71894369  0.15553646    -0.12600
C4694       C  0.65327433  0.73064182  0.15579248     0.04700
C4695       C  0.68512906  0.69938809  0.13999202     0.27100
C4696       C  0.68003574  0.68246933  0.14016141    -0.13300
C4697       C  0.69194179  0.66956491  0.13926952     0.05200
C4698       C  0.70899804  0.67356355  0.13763635    -0.09300
C4699       C  0.71405050  0.69052919  0.13897406     0.06000
C4700       C  0.70215332  0.70338841  0.13984448    -0.13600
Br4701     Br  0.67513171  0.71020221  0.17618204    -0.05700
Br4702     Br  0.63998354  0.73400772  0.10504239    -0.00100
Br4703     Br  0.68453094  0.64666985  0.14034585     0.00400
Br4704     Br  0.70905730  0.72657747  0.14020413    -0.04100
Br4705     Br  0.64183268  0.73477141  0.17661924     0.00500
Br4706     Br  0.67345896  0.70962278  0.10411821    -0.03300
Br4707     Br  0.65660154  0.67709183  0.14092612    -0.04200
Br4708     Br  0.73733157  0.69621757  0.14037836    -0.00200
C4709       C  0.63213783  0.84876915  0.23201381     0.01200
C4710       C  0.62280913  0.83416288  0.23586750     0.04000
C4711       C  0.62294488  0.82027971  0.22477939    -0.12100
C4712       C  0.63113820  0.82140286  0.20923068     0.23300
C4713       C  0.64125906  0.83540375  0.20593354    -0.12600
C4714       C  0.64289314  0.84821554  0.21791931     0.04700
C4715       C  0.62828042  0.80853504  0.19589789     0.27100
C4716       C  0.64095458  0.79733510  0.19122541    -0.13300
C4717       C  0.63870177  0.78622487  0.17756793     0.05200
C4718       C  0.62306579  0.78519039  0.16919185    -0.09300
C4719       C  0.61051392  0.79691679  0.17388189     0.06000
C4720       C  0.61321577  0.80849359  0.18698780    -0.13600
Br4721     Br  0.65178498  0.83786151  0.18437306    -0.05700
Br4722     Br  0.60923091  0.83282693  0.25563168    -0.00100
Br4723     Br  0.65776701  0.77339798  0.17062662     0.00400
Br4724     Br  0.59633380  0.82486425  0.19257382    -0.04100
Br4725     Br  0.66062888  0.86447127  0.21518984     0.00500
Br4726     Br  0.61133590  0.79985408  0.23039167    -0.03300
Br4727     Br  0.66147001  0.79724126  0.20387753    -0.04200
Br4728     Br  0.58979156  0.79870136  0.16181394    -0.00200
C4729       C  0.63329199  0.83146277  0.03665508     0.01200
C4730       C  0.62453190  0.81611148  0.03715735     0.04000
C4731       C  0.62373570  0.80677311  0.05205413    -0.12100
C4732       C  0.63128236  0.81291742  0.06676222     0.23300
C4733       C  0.64029848  0.82809301  0.06628676    -0.12600
C4734       C  0.64163204  0.83714334  0.05121974     0.04700
C4735       C  0.62918716  0.80363772  0.08279457     0.27100
C4736       C  0.61457054  0.80562089  0.09218018    -0.13300
C4737       C  0.61173927  0.79575187  0.10649343     0.05200
C4738       C  0.62379579  0.78392654  0.11198337    -0.09300
C4739       C  0.63939609  0.78362578  0.10349011     0.06000
C4740       C  0.64166624  0.79281761  0.08858342    -0.13600
Br4741     Br  0.65022625  0.83676812  0.08653130    -0.05700
Br4742     Br  0.61407077  0.80746044  0.01733039    -0.00100
Br4743     Br  0.59155616  0.79974037  0.11885371     0.00400
Br4744     Br  0.66176429  0.79031039  0.07556783    -0.04100
Br4745     Br  0.65443062  0.85766282  0.05088171     0.00500
Br4746     Br  0.61217693  0.78552143  0.05245403    -0.03300
Br4747     Br  0.59838145  0.82204797  0.08519003    -0.04200
Br4748     Br  0.65840573  0.77162370  0.11183282    -0.00200
C4749       C  0.58587597  0.74029306  0.14139482     0.01200
C4750       C  0.58022539  0.73308028  0.15672845     0.04000
C4751       C  0.56539634  0.72361044  0.15725862    -0.12100
C4752       C  0.55668896  0.71985073  0.14249024     0.23300
C4753       C  0.56308292  0.72521766  0.12708055    -0.12600
C4754       C  0.57812535  0.73435416  0.12639854     0.04700
C4755       C  0.54236215  0.70797038  0.14301998     0.27100
C4756       C  0.54508310  0.69070141  0.14028685    -0.13300
C4757       C  0.53178303  0.67925621  0.14147698     0.05200
C4758       C  0.51583874  0.68488827  0.14614153    -0.09300
C4759       C  0.51306875  0.70214450  0.14879838     0.06000
C4760       C  0.52625986  0.71369958  0.14697774    -0.13600
Br4761     Br  0.55153549  0.71907281  0.10674581    -0.05700
Br4762     Br  0.59399042  0.73258580  0.17662092    -0.00100
Br4763     Br  0.53552613  0.65575712  0.13710518     0.00400
Br4764     Br  0.52243866  0.73736200  0.15004397    -0.04100
Br4765     Br  0.58957815  0.73416237  0.10511155     0.00500
Br4766     Br  0.55734583  0.71475009  0.17823122    -0.03300
Br4767     Br  0.56722483  0.68265514  0.13554248    -0.04200
Br4768     Br  0.49114439  0.70989995  0.15472076    -0.00200
C4769       C  0.12412871  0.66033892  0.72859227     0.01200
C4770       C  0.13473629  0.67439215  0.73047706     0.04000
C4771       C  0.13345709  0.68806697  0.71940196    -0.12100
C4772       C  0.12358164  0.68665887  0.70484760     0.23300
C4773       C  0.11395438  0.67205062  0.70231920    -0.12600
C4774       C  0.11298260  0.65984533  0.71484286     0.04700
C4775       C  0.12256302  0.70050491  0.69237731     0.27100
C4776       C  0.10708319  0.70798057  0.68923257    -0.13300
C4777       C  0.10475037  0.71749635  0.67473128     0.05200
C4778       C  0.11866770  0.72367047  0.66560189    -0.09300
C4779       C  0.13471323  0.71754544  0.67007135     0.06000
C4780       C  0.13628454  0.70489843  0.68231526    -0.13600
Br4781     Br  0.10256778  0.66824912  0.68130576    -0.05700
Br4782     Br  0.15236668  0.67436295  0.74675003    -0.00100
Br4783     Br  0.08225961  0.71862993  0.66619940     0.00400
Br4784     Br  0.15703732  0.69294828  0.68464191    -0.04100
Br4785     Br  0.09565989  0.64296863  0.71315300     0.00500
Br4786     Br  0.14506968  0.70871845  0.72434245    -0.03300
Br4787     Br  0.08873797  0.70464532  0.70452296    -0.04200
Br4788     Br  0.15502677  0.72634465  0.66071683    -0.00200
C4789       C  0.15387303  0.63832429  0.77816512     0.01200
C4790       C  0.16533307  0.62571375  0.78345120     0.04000
C4791       C  0.18011323  0.63007738  0.79170646    -0.12100
C4792       C  0.18201530  0.64614527  0.79856005     0.23300
C4793       C  0.16977709  0.65831306  0.79565789    -0.12600
C4794       C  0.15546575  0.65438520  0.78609052     0.04700
C4795       C  0.19386842  0.64842854  0.81265296     0.27100
C4796       C  0.19003293  0.64098653  0.82806033    -0.13300
C4797       C  0.20129999  0.64196508  0.84140022     0.05200
C4798       C  0.21566301  0.65243775  0.84039209    -0.09300
C4799       C  0.21942136  0.65997221  0.82470133     0.06000
C4800       C  0.20877207  0.65746827  0.81081741    -0.13600
Br4801     Br  0.17236554  0.68021347  0.80588906    -0.05700
Br4802     Br  0.15876657  0.60238834  0.78583449    -0.00100
Br4803     Br  0.19713757  0.62724596  0.86011731     0.00400
Br4804     Br  0.21430191  0.66651233  0.78915823    -0.04100
Br4805     Br  0.13711727  0.66962218  0.78905010     0.00500
Br4806     Br  0.19711401  0.61337854  0.79544065    -0.03300
Br4807     Br  0.16892835  0.62951865  0.83101691    -0.04200
Br4808     Br  0.23853796  0.67420231  0.82148461    -0.00200
C4809       C  0.02908984  0.64393630  0.83169119     0.01200
C4810       C  0.04160806  0.65655460  0.83260455     0.04000
C4811       C  0.05578448  0.65573273  0.82220619    -0.12100
C4812       C  0.05761395  0.64249380  0.81066213     0.23300
C4813       C  0.04553327  0.62967712  0.81002615    -0.12600
C4814       C  0.03156445  0.63014483  0.82068008     0.04700
C4815       C  0.07238871  0.64163968  0.79937486     0.27100
C4816       C  0.07303951  0.65135227  0.78469873    -0.13300
C4817       C  0.08603340  0.64901033  0.77305870     0.05200
C4818       C  0.09812208  0.63648964  0.77570954    -0.09300
C4819       C  0.09802499  0.62758302  0.79094815     0.06000
C4820       C  0.08534012  0.63029978  0.80279326    -0.13600
Br4821     Br  0.04820738  0.61136944  0.79432395    -0.05700
Br4822     Br  0.04045549  0.67437521  0.84904029    -0.00100
Br4823     Br  0.08696129  0.66285710  0.75345159     0.00400
Br4824     Br  0.08557252  0.61845300  0.82378530    -0.04100
Br4825     Br  0.01619940  0.61150618  0.81987009     0.00500
Br4826     Br  0.07310803  0.67247748  0.82405218    -0.03300
Br4827     Br  0.05582660  0.66757456  0.78036852    -0.04200
Br4828     Br  0.11553889  0.61197441  0.79599550    -0.00200
C4829       C  0.13042435  0.59830420  0.73474955     0.01200
C4830       C  0.12158788  0.58339944  0.73882938     0.04000
C4831       C  0.12062601  0.57017459  0.72713676    -0.12100
C4832       C  0.12971391  0.57103258  0.71218007     0.23300
C4833       C  0.14099494  0.58422074  0.70962571    -0.12600
C4834       C  0.14191131  0.59746675  0.72119520     0.04700
C4835       C  0.12817351  0.55767781  0.69941250     0.27100
C4836       C  0.13915011  0.54398615  0.69962448    -0.13300
C4837       C  0.13856118  0.53195586  0.68676162     0.05200
C4838       C  0.12693828  0.53362882  0.67359862    -0.09300
C4839       C  0.11593772  0.54741400  0.67344108     0.06000
C4840       C  0.11651864  0.55935394  0.68640644    -0.13600
Br4841     Br  0.15493795  0.58422204  0.68994435    -0.05700
Br4842     Br  0.11455274  0.57870791  0.76140725    -0.00100
Br4843     Br  0.15357374  0.51309219  0.68757319     0.00400
Br4844     Br  0.10172424  0.57837857  0.68620171    -0.04100
Br4845     Br  0.15971812  0.61369115  0.71857175     0.00500
Br4846     Br  0.10707033  0.55067010  0.73157398    -0.03300
Br4847     Br  0.15522095  0.54200770  0.71745159    -0.04200
Br4848     Br  0.10093949  0.55081892  0.65488756    -0.00200
C4849       C  0.31424278  0.14677401  0.72597109     0.01200
C4850       C  0.31128126  0.15614600  0.71125032     0.04000
C4851       C  0.29770020  0.15225146  0.70084693    -0.12100
C4852       C  0.28636498  0.13965370  0.70546735     0.23300
C4853       C  0.28773562  0.13208388  0.72122145    -0.12600
C4854       C  0.30162993  0.13553713  0.73150634     0.04700
C4855       C  0.27416517  0.13338466  0.69294309     0.27100
C4856       C  0.25922852  0.14201689  0.69004927    -0.13300
C4857       C  0.24967535  0.13840748  0.67566207     0.05200
C4858       C  0.25534925  0.12631407  0.66391490    -0.09300
C4859       C  0.26892697  0.11595830  0.66840794     0.06000
C4860       C  0.27845938  0.11970667  0.68268154    -0.13600
Br4861     Br  0.27083584  0.11629955  0.72811356    -0.05700
Br4862     Br  0.32562391  0.17460848  0.70519275    -0.00100
Br4863     Br  0.22929483  0.15055484  0.67249687     0.00400
Br4864     Br  0.29816773  0.10683930  0.68759073    -0.04100
Br4865     Br  0.30290591  0.12407666  0.75256658     0.00500
Br4866     Br  0.29517934  0.16339436  0.67959869    -0.03300
Br4867     Br  0.25256141  0.15947455  0.70542161    -0.04200
Br4868     Br  0.27450681  0.09638178  0.65520303    -0.00200
C4869       C  0.37669379  0.14356950  0.72050222     0.01200
C4870       C  0.38318897  0.15823000  0.71258976     0.04000
C4871       C  0.39772303  0.15739613  0.70275171    -0.12100
C4872       C  0.40497774  0.14185346  0.69895023     0.23300
C4873       C  0.39747661  0.12708583  0.70472368    -0.12600
C4874       C  0.38311101  0.12782781  0.71483147     0.04700
C4875       C  0.41929704  0.14089739  0.68718586     0.27100
C4876       C  0.41651804  0.14196770  0.66980142    -0.13300
C4877       C  0.43002256  0.14135983  0.65863090     0.05200
C4878       C  0.44630804  0.13920729  0.66474102    -0.09300
C4879       C  0.44905291  0.13754740  0.68204579     0.06000
C4880       C  0.43558958  0.13857065  0.69327436    -0.13600
Br4881     Br  0.40661398  0.10569043  0.69785151    -0.05700
Br4882     Br  0.37104265  0.17914106  0.71211081    -0.00100
Br4883     Br  0.42621860  0.14318016  0.63489099     0.00400
Br4884     Br  0.43936426  0.13667819  0.71699323    -0.04100
Br4885     Br  0.37095591  0.10716035  0.71699160     0.00500
Br4886     Br  0.40764994  0.17761964  0.69396319    -0.03300
Br4887     Br  0.39412727  0.14385832  0.66129657    -0.04200
Br4888     Br  0.47126368  0.13380459  0.69029738    -0.00200
C4889       C  0.34766000  0.17559198  0.76773710     0.01200
C4890       C  0.33492993  0.18774363  0.76766004     0.04000
C4891       C  0.33367304  0.19956385  0.78080311    -0.12100
C4892       C  0.34489100  0.19911103  0.79434999     0.23300
C4893       C  0.35770180  0.18708070  0.79440514    -0.12600
C4894       C  0.35932932  0.17560607  0.78102670     0.04700
C4895       C  0.34306458  0.21094482  0.80879642     0.27100
C4896       C  0.35272658  0.22569282  0.80973713    -0.13300
C4897       C  0.35235430  0.23591553  0.82424734     0.05200
C4898       C  0.34232015  0.23132275  0.83808663    -0.09300
C4899       C  0.33108306  0.21766232  0.83605469     0.06000
C4900       C  0.33187758  0.20725460  0.82178811    -0.13600
Br4901     Br  0.37260363  0.18591151  0.81329534    -0.05700
Br4902     Br  0.31946070  0.18857244  0.74929946    -0.00100
Br4903     Br  0.36552460  0.25610296  0.82449529     0.00400
Br4904     Br  0.31796667  0.18752675  0.82021391    -0.04100
Br4905     Br  0.37688390  0.15909584  0.78176899     0.00500
Br4906     Br  0.31653674  0.21642169  0.78038566    -0.03300
Br4907     Br  0.36673435  0.23157852  0.79106604    -0.04200
Br4908     Br  0.31351788  0.21380348  0.85212308    -0.00200
C4909       C  0.34116963  0.11852866  0.76775536     0.01200
C4910       C  0.33843113  0.12167815  0.78497206     0.04000
C4911       C  0.33720503  0.10818849  0.79620155    -0.12100
C4912       C  0.33899432  0.09161812  0.79037291     0.23300
C4913       C  0.34032989  0.08840759  0.77315767    -0.12600
C4914       C  0.34036533  0.10179162  0.76187748     0.04700
C4915       C  0.33957564  0.07758754  0.80236776     0.27100
C4916       C  0.35414603  0.07482800  0.81166379    -0.13300
C4917       C  0.35464242  0.06194575  0.82354760     0.05200
C4918       C  0.34094822  0.05081042  0.82523041    -0.09300
C4919       C  0.32648113  0.05338818  0.81544523     0.06000
C4920       C  0.32565450  0.06708114  0.80447354    -0.13600
Br4921     Br  0.34274585  0.06569445  0.76503595    -0.05700
Br4922     Br  0.33578798  0.14399484  0.79366034    -0.00100
Br4923     Br  0.37379733  0.06073714  0.83815774     0.00400
Br4924     Br  0.30542024  0.07157655  0.79226118    -0.04100
Br4925     Br  0.33662159  0.09706438  0.73855684     0.00500
Br4926     Br  0.33345893  0.11225247  0.81973918    -0.03300
Br4927     Br  0.37353997  0.08871241  0.80790011    -0.04200
Br4928     Br  0.30795942  0.03788607  0.81607228    -0.00200
C4929       C  0.71568442  0.14418943  0.66595310     0.01200
C4930       C  0.71890801  0.13531453  0.68080059     0.04000
C4931       C  0.70644552  0.13383535  0.69313270    -0.12100
C4932       C  0.69111133  0.14215282  0.69114949     0.23300
C4933       C  0.68885348  0.15289262  0.67738030    -0.12600
C4934       C  0.70136651  0.15437680  0.66513893     0.04700
C4935       C  0.67739330  0.13987030  0.70352897     0.27100
C4936       C  0.66463344  0.12819882  0.70028010    -0.13300
C4937       C  0.65083945  0.12696153  0.71109874     0.05200
C4938       C  0.64947996  0.13767118  0.72530388    -0.09300
C4939       C  0.66292554  0.14864738  0.72903612     0.06000
C4940       C  0.67670022  0.14979646  0.71811265    -0.13600
Br4941     Br  0.66844699  0.16534849  0.67517006    -0.05700
Br4942     Br  0.74115152  0.12760560  0.68541148    -0.00100
Br4943     Br  0.63416296  0.11002782  0.70637680     0.00400
Br4944     Br  0.69445025  0.16555853  0.72262410    -0.04100
Br4945     Br  0.69928596  0.17110723  0.64784931     0.00500
Br4946     Br  0.71031053  0.12042080  0.71271695    -0.03300
Br4947     Br  0.66595967  0.11420393  0.68055231    -0.04200
Br4948     Br  0.66263082  0.16290574  0.74851144    -0.00200
C4949       C  0.76276288  0.16990594  0.63259811     0.01200
C4950       C  0.76698121  0.17761647  0.61707687     0.04000
C4951       C  0.77752523  0.19176020  0.61668169    -0.12100
C4952       C  0.78651484  0.19661962  0.63096629     0.23300
C4953       C  0.78410726  0.18792298  0.64599820    -0.12600
C4954       C  0.77250024  0.17462317  0.64687820     0.04700
C4955       C  0.80055327  0.20879053  0.62937119     0.27100
C4956       C  0.81512705  0.20382389  0.62109468    -0.13300
C4957       C  0.82814284  0.21530036  0.61876092     0.05200
C4958       C  0.82850431  0.23077161  0.62771770    -0.09300
C4959       C  0.81328526  0.23616864  0.63526317     0.06000
C4960       C  0.79929676  0.22528537  0.63553560    -0.13600
Br4961     Br  0.79747078  0.19388737  0.66526114    -0.05700
Br4962     Br  0.76373344  0.16658346  0.59578993    -0.00100
Br4963     Br  0.84402786  0.21030021  0.60126357     0.00400
Br4964     Br  0.77821024  0.23268438  0.64446237    -0.04100
Br4965     Br  0.77221505  0.16169430  0.66733517     0.00500
Br4966     Br  0.78069220  0.20398818  0.59607801    -0.03300
Br4967     Br  0.81766481  0.18092951  0.61345736    -0.04200
Br4968     Br  0.81017166  0.25815169  0.64484748    -0.00200
C4969       C  0.75549913  0.10751392  0.63901377     0.01200
C4970       C  0.74980154  0.09516111  0.65053883     0.04000
C4971       C  0.75994524  0.08122299  0.65451480    -0.12100
C4972       C  0.77536207  0.07889741  0.64654617     0.23300
C4973       C  0.78023967  0.08996293  0.63388021    -0.12600
C4974       C  0.77024087  0.10379924  0.62975245     0.04700
C4975       C  0.78616186  0.06423033  0.65047680     0.27100
C4976       C  0.79936367  0.06586764  0.66199229    -0.13300
C4977       C  0.81122647  0.05293615  0.66364312     0.05200
C4978       C  0.81005220  0.03833925  0.65356206    -0.09300
C4979       C  0.79618725  0.03634364  0.64282270     0.06000
C4980       C  0.78433827  0.04922882  0.64129841    -0.13600
Br4981     Br  0.80102167  0.08613377  0.62228174    -0.05700
Br4982     Br  0.72796549  0.09575505  0.66040851    -0.00100
Br4983     Br  0.82958921  0.05589977  0.67893882     0.00400
Br4984     Br  0.76586633  0.04670405  0.62606387    -0.04100
Br4985     Br  0.77659100  0.11649145  0.61021080     0.00500
Br4986     Br  0.75300750  0.06520936  0.67116734    -0.03300
Br4987     Br  0.80153780  0.08628116  0.67486288    -0.04200
Br4988     Br  0.79311340  0.01579948  0.63029918    -0.00200
C4989       C  0.65746731  0.13711191  0.53819844     0.01200
C4990       C  0.65768993  0.12250783  0.54838068     0.04000
C4991       C  0.66857439  0.12144523  0.56223523    -0.12100
C4992       C  0.67882850  0.13511460  0.56666567     0.23300
C4993       C  0.67845087  0.14974376  0.55686842    -0.12600
C4994       C  0.66824659  0.15061734  0.54251134     0.04700
C4995       C  0.69064192  0.13393972  0.58112368     0.27100
C4996       C  0.68498435  0.13536424  0.59774593    -0.13300
C4997       C  0.69639533  0.13484043  0.61121432     0.05200
C4998       C  0.71377260  0.13500847  0.60814538    -0.09300
C4999       C  0.71918648  0.13224005  0.59151337     0.06000
C5000       C  0.70770341  0.13137427  0.57819050    -0.13600
Br5001     Br  0.69208603  0.16871488  0.56327379    -0.05700
Br5002     Br  0.64271054  0.10391758  0.54427794    -0.00100
Br5003     Br  0.68767785  0.13212780  0.63335599     0.00400
Br5004     Br  0.71527702  0.12666709  0.55574980    -0.04100
Br5005     Br  0.67025098  0.17010542  0.52837352     0.00500
Br5006     Br  0.66970282  0.10107352  0.57516200    -0.03300
Br5007     Br  0.66157731  0.13863466  0.60201090    -0.04200
Br5008     Br  0.74225257  0.12818979  0.58688324    -0.00200
C5009       C  0.12043961  0.71895760  0.33053172     0.01200
C5010       C  0.11975574  0.72383215  0.31347198     0.04000
C5011       C  0.12267573  0.71206432  0.30063911    -0.12100
C5012       C  0.12780734  0.69571777  0.30456900     0.23300
C5013       C  0.13065273  0.69141555  0.32136913    -0.12600
C5014       C  0.12646314  0.70269491  0.33434895     0.04700
C5015       C  0.12789698  0.68244482  0.29139678     0.27100
C5016       C  0.11426328  0.67133849  0.29030010    -0.13300
C5017       C  0.11400920  0.65859831  0.27809597     0.05200
C5018       C  0.12739976  0.65693202  0.26671976    -0.09300
C5019       C  0.13998349  0.66927383  0.26659573     0.06000
C5020       C  0.14076572  0.68142645  0.27944889    -0.13600
Br5021     Br  0.13957166  0.66954780  0.32642874    -0.05700
Br5022     Br  0.11571468  0.74681283  0.30721076    -0.00100
Br5023     Br  0.09497051  0.64370391  0.27696962     0.00400
Br5024     Br  0.15934920  0.69672585  0.28060659    -0.04100
Br5025     Br  0.12782297  0.69472585  0.35699506     0.00500
Br5026     Br  0.11864450  0.71804319  0.27761001    -0.03300
Br5027     Br  0.09567967  0.67382807  0.30542746    -0.04200
Br5028     Br  0.15400623  0.67158452  0.24723004    -0.00200
C5029       C  0.11497799  0.66662829  0.46031889     0.01200
C5030       C  0.12287545  0.66230438  0.44512946     0.04000
C5031       C  0.12267095  0.67342031  0.43153864    -0.12100
C5032       C  0.11443064  0.68889780  0.43290724     0.23300
C5033       C  0.10660166  0.69336036  0.44803987    -0.12600
C5034       C  0.10690194  0.68227818  0.46173923     0.04700
C5035       C  0.11348958  0.70003448  0.41808408     0.27100
C5036       C  0.12604717  0.71197172  0.41505626    -0.13300
C5037       C  0.12557262  0.72190758  0.40050795     0.05200
C5038       C  0.11244425  0.71994984  0.38883791    -0.09300
C5039       C  0.10056176  0.70707634  0.39147851     0.06000
C5040       C  0.10078242  0.69758066  0.40624573    -0.13600
Br5041     Br  0.09540731  0.71463819  0.44984539    -0.05700
Br5042     Br  0.13309506  0.64069642  0.44234344    -0.00100
Br5043     Br  0.14319845  0.73781390  0.39689409     0.00400
Br5044     Br  0.08372843  0.68097485  0.41030344    -0.04100
Br5045     Br  0.09676881  0.68884475  0.48259887     0.00500
Br5046     Br  0.13341526  0.66737700  0.41077366    -0.03300
Br5047     Br  0.14392188  0.71456429  0.43099431    -0.04200
Br5048     Br  0.08514652  0.70082093  0.37407808    -0.00200
C5049       C  0.20314247  0.82753485  0.35948419     0.01200
C5050       C  0.20592757  0.81495701  0.37161440     0.04000
C5051       C  0.19483357  0.80122042  0.37297556    -0.12100
C5052       C  0.18098834  0.79992481  0.36223657     0.23300
C5053       C  0.17887122  0.81174645  0.34943928    -0.12600
C5054       C  0.19020887  0.82505390  0.34769465     0.04700
C5055       C  0.16848698  0.78624144  0.36409618     0.27100
C5056       C  0.16850129  0.77262322  0.35283059    -0.13300
C5057       C  0.15474227  0.76164901  0.35199302     0.05200
C5058       C  0.14108963  0.76385624  0.36292228    -0.09300
C5059       C  0.14191956  0.77661421  0.37532564     0.06000
C5060       C  0.15537725  0.78795939  0.37562927    -0.13600
Br5061     Br  0.15976076  0.81022661  0.33479915    -0.05700
Br5062     Br  0.22462722  0.81621634  0.38655299    -0.00100
Br5063     Br  0.15427011  0.74482954  0.33467096     0.00400
Br5064     Br  0.15534430  0.80659774  0.39111899    -0.04100
Br5065     Br  0.18822262  0.83943930  0.32855562     0.00500
Br5066     Br  0.19807449  0.78443569  0.38994949    -0.03300
Br5067     Br  0.18705580  0.76980582  0.33776883    -0.04200
Br5068     Br  0.12468846  0.77872984  0.39209105    -0.00200
C5069       C  0.07886842  0.76117648  0.35322949     0.01200
C5070       C  0.07899499  0.77651942  0.34414763     0.04000
C5071       C  0.06543475  0.78758987  0.34525004    -0.12100
C5072       C  0.05109515  0.78297189  0.35415420     0.23300
C5073       C  0.04977032  0.76672065  0.36069464    -0.12600
C5074       C  0.06323656  0.75554810  0.35934099     0.04700
C5075       C  0.03707399  0.79495415  0.35552427     0.27100
C5076       C  0.03733260  0.80744786  0.36797939    -0.13300
C5077       C  0.02538009  0.82032983  0.36790681     0.05200
C5078       C  0.01313043  0.82083593  0.35513088    -0.09300
C5079       C  0.01187569  0.80712655  0.34383567     0.06000
C5080       C  0.02405445  0.79449405  0.34378153    -0.13600
Br5081     Br  0.02942631  0.75981122  0.37151037    -0.05700
Br5082     Br  0.09626541  0.78180020  0.32817242    -0.00100
Br5083     Br  0.02640204  0.83708542  0.38535848     0.00400
Br5084     Br  0.02332112  0.77680856  0.32721766    -0.04100
Br5085     Br  0.05857694  0.73206420  0.36208503     0.00500
Br5086     Br  0.06640837  0.80928061  0.33460110    -0.03300
Br5087     Br  0.05458774  0.80708579  0.38479307    -0.04200
Br5088     Br  0.99288581  0.80472872  0.32915505    -0.00200
loop_ 
_geom_bond_atom_site_label_1 
_geom_bond_atom_site_label_2 
_geom_bond_distance 
_geom_bond_site_symmetry_2 
_ccdc_geom_bond_type 
C1            C2   1.531       .  S
C1            C7   1.537       .  S
C1            C5   1.543       .  S
C1         C5069   1.550       .  S
C2            H9   1.086       .  S
C2            C3   1.371       .  D
C3            C4   1.553       .  S
C3         C5009   1.507       .  S
C4            C8   1.544       .  S
C4            C6   1.551       .  S
C4           H10   1.108       .  S
C5           H11   1.084       .  S
C5            C6   1.371       .  D
C6         C5038   1.501       .  S
C7           H12   1.085       .  S
C7            C8   1.361       .  D
C8         C5058   1.497       .  S
C13          C14   1.530       .  S
C13          C19   1.531       .  S
C13          C17   1.552       .  S
C13        C4949   1.557       .  S
C14          H21   1.085       .  S
C14          C15   1.369       .  D
C15          C16   1.560       .  S
C15        C4969   1.524       .  S
C16          C20   1.565       .  S
C16          C18   1.546       .  S
C16          H22   1.101       .  S
C17          H23   1.080       .  S
C17          C18   1.371       .  D
C18        C4998   1.515       .  S
C19          H24   1.086       .  S
C19          C20   1.362       .  D
C20        C4929   1.492       .  S
C25          C26   1.543       .  S
C25          C31   1.530       .  S
C25          C29   1.544       .  S
C25        C4869   1.558       .  S
C26          H33   1.086       .  S
C26          C27   1.365       .  D
C27          C28   1.546       .  S
C27        C4889   1.497       .  S
C28          C32   1.546       .  S
C28          C30   1.545       .  S
C28          H34   1.107       .  S
C29          H35   1.084       .  S
C29          C30   1.373       .  D
C30        C4909   1.495       .  S
C31          H36   1.086       .  S
C31          C32   1.369       .  D
C32        C4849   1.506       .  S
C37          C38   1.523       .  S
C37          C43   1.519       .  S
C37          C41   1.553       .  S
C37        C4829   1.542       .  S
C38          H45   1.080       .  S
C38          C39   1.374       .  D
C39          C40   1.566       .  S
C39        C4789   1.534       .  S
C40          C44   1.557       .  S
C40          C42   1.533       .  S
C40          H46   1.089       .  S
C41          H47   1.081       .  S
C41          C42   1.368       .  D
C42        C4818   1.495       .  S
C43          H48   1.086       .  S
C43          C44   1.356       .  D
C44        C4769   1.497       .  S
C49          C50   1.544       .  S
C49          C55   1.512       .  S
C49          C53   1.550       .  S
C49        C4749   1.551       .  S
C50          H57   1.083       .  S
C50          C51   1.373       .  D
C51          C52   1.552       .  S
C51        C4718   1.519       .  S
C52          C56   1.563       .  S
C52          C54   1.549       .  S
C52          H58   1.100       .  S
C53          H59   1.082       .  S
C53          C54   1.376       .  D
C54        C4738   1.520       .  S
C55          H60   1.088       .  S
C55          C56   1.351       .  D
C56        C4689   1.484       .  S
C61          C62   1.548       .  S
C61          C67   1.544       .  S
C61          C65   1.519       .  S
C61        C4629   1.550       .  S
C62          H69   1.083       .  S
C62          C63   1.371       .  D
C63          C64   1.542       .  S
C63        C4649   1.510       .  S
C64          C68   1.549       .  S
C64          C66   1.557       .  S
C64          H70   1.095       .  S
C65          H71   1.087       .  S
C65          C66   1.355       .  D
C66        C4669   1.484       .  S
C67          H72   1.083       .  S
C67          C68   1.377       .  D
C68        C4609   1.521       .  S
C73          C74   1.538       .  S
C73          C79   1.538       .  S
C73          C77   1.529       .  S
C73        C4569   1.548       .  S
C74          H81   1.084       .  S
C74          C75   1.360       .  D
C75          C76   1.542       .  S
C75        C4589   1.493       .  S
C76          C80   1.549       .  S
C76          C78   1.555       .  S
C76          H82   1.104       .  S
C77          H83   1.085       .  S
C77          C78   1.372       .  D
C78        C4778   1.515       .  S
C79          H84   1.085       .  S
C79          C80   1.368       .  D
C80        C4549   1.489       .  S
C85          C86   1.547       .  S
C85          C91   1.533       .  S
C85          C89   1.534       .  S
C85        C4538   1.553       .  S
C86          H93   1.083       .  S
C86          C87   1.372       .  D
C87          C88   1.550       .  S
C87        C4489   1.504       .  S
C88          C92   1.550       .  S
C88          C90   1.552       .  S
C88          H94   1.109       .  S
C89          H95   1.086       .  S
C89          C90   1.368       .  D
C90        C4469   1.505       .  S
C91          H96   1.085       .  S
C91          C92   1.362       .  D
C92        C4509   1.497       .  S
C97          C98   1.545       .  S
C97         C103   1.540       .  S
C97         C101   1.528       .  S
C97        C4449   1.554       .  S
C98         H105   1.084       .  S
C98          C99   1.370       .  D
C99         C100   1.550       .  S
C99        C4429   1.499       .  S
C100        C104   1.552       .  S
C100        C102   1.552       .  S
C100        H106   1.108       .  S
C101        H107   1.086       .  S
C101        C102   1.369       .  D
C102       C4409   1.502       .  S
C103        H108   1.084       .  S
C103        C104   1.366       .  D
C104       C4938   1.509       .  S
C109        C110   1.535       .  S
C109        C115   1.526       .  S
C109        C113   1.553       .  S
C109       C4398   1.547       .  S
C110        H117   1.086       .  S
C110        C111   1.370       .  D
C111        C112   1.544       .  S
C111       C4349   1.513       .  S
C112        C116   1.558       .  S
C112        C114   1.540       .  S
C112        H118   1.096       .  S
C113        H119   1.082       .  S
C113        C114   1.376       .  D
C114       C4329   1.510       .  S
C115        H120   1.087       .  S
C115        C116   1.355       .  D
C116       C4369   1.485       .  S
C121        C122   1.534       .  S
C121        C127   1.537       .  S
C121        C125   1.552       .  S
C121       C4309   1.557       .  S
C122        H129   1.086       .  S
C122        C123   1.368       .  D
C123        C124   1.552       .  S
C123       C4269   1.504       .  S
C124        C128   1.550       .  S
C124        C126   1.547       .  S
C124        H130   1.109       .  S
C125        H131   1.083       .  S
C125        C126   1.373       .  D
C126       C4249   1.507       .  S
C127        H132   1.085       .  S
C127        C128   1.365       .  D
C128       C4289   1.501       .  S
C133        C134   1.549       .  S
C133        C139   1.536       .  S
C133        C137   1.525       .  S
C133       C4209   1.545       .  S
C134        H141   1.084       .  S
C134        C135   1.370       .  D
C135        C136   1.541       .  S
C135       C4229   1.498       .  S
C136        C140   1.547       .  S
C136        C138   1.550       .  S
C136        H142   1.108       .  S
C137        H143   1.086       .  S
C137        C138   1.367       .  D
C138       C4698   1.493       .  S
C139        H144   1.085       .  S
C139        C140   1.364       .  D
C140       C4189   1.498       .  S
C145        C146   1.555       .  S
C145        C151   1.531       .  S
C145        C149   1.535       .  S
C145       C4149   1.559       .  S
C146        H153   1.082       .  S
C146        C147   1.378       .  D
C147        C148   1.546       .  S
C147       C4109   1.506       .  S
C148        C152   1.546       .  S
C148        C150   1.549       .  S
C148        H154   1.108       .  S
C149        H155   1.086       .  S
C149        C150   1.370       .  D
C150       C4169   1.509       .  S
C151        H156   1.086       .  S
C151        C152   1.358       .  D
C152       C4138   1.491       .  S
C157        C158   1.546       .  S
C157        C163   1.512       .  S
C157        C161   1.550       .  S
C157       C4069   1.546       .  S
C158        H165   1.076       .  S
C158        C159   1.374       .  D
C159        C160   1.553       .  S
C159       C4029   1.523       .  S
C160        C164   1.563       .  S
C160        C162   1.539       .  S
C160        H166   1.099       .  S
C161        H167   1.085       .  S
C161        C162   1.372       .  D
C162       C4089   1.507       .  S
C163        H168   1.088       .  S
C163        C164   1.351       .  D
C164       C4049   1.485       .  S
C169        C170   1.535       .  S
C169        C175   1.550       .  S
C169        C173   1.534       .  S
C169       C4009   1.553       .  S
C170        H177   1.085       .  S
C170        C171   1.374       .  D
C171        C172   1.543       .  S
C171       C3978   1.515       .  S
C172        C176   1.540       .  S
C172        C174   1.552       .  S
C172        H178   1.092       .  S
C173        H179   1.084       .  S
C173        C174   1.358       .  D
C174       C3989   1.482       .  S
C175        H180   1.085       .  S
C175        C176   1.376       .  D
C176       C3949   1.514       .  S
C181        C182   1.533       .  S
C181        C187   1.536       .  S
C181        C185   1.544       .  S
C181       C3918   1.548       .  S
C182        H189   1.086       .  S
C182        C183   1.373       .  D
C183        C184   1.552       .  S
C183       C3878   1.508       .  S
C184        C188   1.548       .  S
C184        C186   1.549       .  S
C184        H190   1.105       .  S
C185        H191   1.080       .  S
C185        C186   1.369       .  D
C186       C3929   1.510       .  S
C187        H192   1.086       .  S
C187        C188   1.358       .  D
C188       C3889   1.487       .  S
C193        C194   1.538       .  S
C193        C199   1.533       .  S
C193        C197   1.549       .  S
C193       C3789   1.558       .  S
C194        H201   1.085       .  S
C194        C195   1.370       .  D
C195        C196   1.553       .  S
C195       C3838   1.501       .  S
C196        C200   1.550       .  S
C196        C198   1.542       .  S
C196        H202   1.108       .  S
C197        H203   1.075       .  S
C197        C198   1.365       .  D
C198       C3809   1.497       .  S
C199        H204   1.086       .  S
C199        C200   1.369       .  D
C200       C3849   1.504       .  S
C205        C206   1.545       .  S
C205        C211   1.541       .  S
C205        C209   1.516       .  S
C205       C3769   1.541       .  S
C206        H213   1.078       .  S
C206        C207   1.370       .  D
C207        C208   1.545       .  S
C207       C3738   1.512       .  S
C208        C212   1.550       .  S
C208        C210   1.564       .  S
C208        H214   1.099       .  S
C209        H215   1.087       .  S
C209        C210   1.357       .  D
C210       C3749   1.485       .  S
C211        H216   1.085       .  S
C211        C212   1.369       .  D
C212       C3718   1.516       .  S
C217        C218   1.530       .  S
C217        C223   1.534       .  S
C217        C221   1.548       .  S
C217       C3869   1.549       .  S
C218        H225   1.086       .  S
C218        C219   1.371       .  D
C219        C220   1.553       .  S
C219       C4058   1.505       .  S
C220        C224   1.543       .  S
C220        C222   1.551       .  S
C220        H226   1.108       .  S
C221        H227   1.085       .  S
C221        C222   1.375       .  D
C222       C3669   1.505       .  S
C223        H228   1.083       .  S
C223        C224   1.356       .  D
C224       C3689   1.494       .  S
C229        C230   1.548       .  S
C229        C235   1.540       .  S
C229        C233   1.518       .  S
C229       C3658   1.546       .  S
C230        H237   1.080       .  S
C230        C231   1.377       .  D
C231        C232   1.552       .  S
C231       C3638   1.524       .  S
C232        C236   1.546       .  S
C232        C234   1.563       .  S
C232        H238   1.098       .  S
C233        H239   1.087       .  S
C233        C234   1.355       .  D
C234       C3609   1.487       .  S
C235        H240   1.085       .  S
C235        C236   1.367       .  D
C236       C3958   1.507       .  S
C241        C242   1.544       .  S
C241        C247   1.522       .  S
C241        C245   1.542       .  S
C241       C3569   1.554       .  S
C242        H249   1.083       .  S
C242        C243   1.370       .  D
C243        C244   1.551       .  S
C243       C3598   1.505       .  S
C244        C248   1.550       .  S
C244        C246   1.551       .  S
C244        H250   1.109       .  S
C245        H251   1.085       .  S
C245        C246   1.371       .  D
C246       C4038   1.500       .  S
C247        H252   1.087       .  S
C247        C248   1.361       .  D
C248       C3729   1.493       .  S
C253        C254   1.543       .  S
C253        C259   1.529       .  S
C253        C257   1.549       .  S
C253       C3529   1.565       .  S
C254        H261   1.084       .  S
C254        C255   1.371       .  D
C255        C256   1.550       .  S
C255       C3558   1.504       .  S
C256        C260   1.549       .  S
C256        C258   1.547       .  S
C256        H262   1.108       .  S
C257        H263   1.084       .  S
C257        C258   1.374       .  D
C258       C4118   1.507       .  S
C259        H264   1.087       .  S
C259        C260   1.366       .  D
C260       C3509   1.500       .  S
C265        C266   1.541       .  S
C265        C271   1.526       .  S
C265        C269   1.543       .  S
C265       C3709   1.555       .  S
C266        H273   1.081       .  S
C266        C267   1.361       .  D
C267        C268   1.550       .  S
C267       C3898   1.492       .  S
C268        C272   1.553       .  S
C268        C270   1.565       .  S
C268        H274   1.100       .  S
C269        H275   1.085       .  S
C269        C270   1.384       .  D
C270       C3469   1.533       .  S
C271        H276   1.087       .  S
C271        C272   1.356       .  D
C272       C3489   1.507       .  S
O277       Cu285   2.037       .  S
O277        C287   1.281       .  A
O278       Cu285   2.015       .  S
O278        C288   1.278       .  A
O279       Cu285   2.019       .  S
O279        C289   1.279       .  A
O280       Cu285   2.016       .  S
O280        C290   1.278       .  A
O281       Cu286   2.002       .  S
O281        C290   1.277       .  A
O282       Cu286   2.020       .  S
O282        C289   1.279       .  A
O283       Cu286   2.015       .  S
O283        C288   1.278       .  A
O284       Cu286   2.024       .  S
O284        C287   1.278       .  A
Cu285      Cu286   2.364       .  S
C287       C3449   1.509       .  S
C288       C3758   1.484       .  S
C289       C3409   1.491       .  S
C290       C3429   1.493       .  S
O291       Cu299   2.014       .  S
O291        C301   1.278       .  A
O292       Cu299   2.013       .  S
O292        C302   1.278       .  A
O293       Cu299   2.016       .  S
O293        C303   1.278       .  A
O294       Cu299   2.018       .  S
O294        C304   1.279       .  A
O295       Cu300   1.997       .  S
O295        C304   1.275       .  A
O296       Cu300   1.989       .  S
O296        C303   1.275       .  A
O297       Cu300   2.006       .  S
O297        C302   1.278       .  A
O298       Cu300   2.009       .  S
O298        C301   1.278       .  A
Cu299      Cu300   2.375       .  S
C301       C3998   1.485       .  S
C302       C3438   1.480       .  S
C303       C3389   1.471       .  S
C304       C3578   1.471       .  S
O305       Cu313   2.010       .  S
O305        C315   1.278       .  A
O306       Cu313   2.017       .  S
O306        C316   1.278       .  A
O307       Cu313   2.018       .  S
O307        C317   1.279       .  A
O308       Cu313   2.023       .  S
O308        C318   1.278       .  A
O309       Cu314   2.029       .  S
O309        C318   1.280       .  A
O310       Cu314   2.025       .  S
O310        C317   1.280       .  A
O311       Cu314   2.001       .  S
O311        C316   1.276       .  A
O312       Cu314   2.012       .  S
O312        C315   1.277       .  A
Cu313      Cu314   2.369       .  S
C315       C4498   1.477       .  S
C316       C3349   1.475       .  S
C317       C3369   1.489       .  S
C318       C4989   1.507       .  S
O319       Cu327   2.019       .  S
O319        C329   1.278       .  A
O320       Cu327   2.007       .  S
O320        C330   1.277       .  A
O321       Cu327   2.014       .  S
O321        C331   1.277       .  A
O322       Cu327   2.014       .  S
O322        C332   1.277       .  A
O323       Cu328   2.014       .  S
O323        C332   1.277       .  A
O324       Cu328   2.018       .  S
O324        C331   1.278       .  A
O325       Cu328   2.022       .  S
O325        C330   1.278       .  A
O326       Cu328   2.016       .  S
O326        C329   1.278       .  A
Cu327      Cu328   2.361       .  S
C329       C4458   1.497       .  S
C330       C3329   1.504       .  S
C331       C3358   1.501       .  S
C332       C4878   1.475       .  S
O333       Cu341   2.001       .  S
O333        C343   1.276       .  A
O334       Cu341   2.005       .  S
O334        C344   1.277       .  A
O335       Cu341   2.008       .  S
O335        C345   1.278       .  A
O336       Cu341   2.004       .  S
O336        C346   1.277       .  A
O337       Cu342   1.994       .  S
O337        C346   1.276       .  A
O338       Cu342   1.993       .  S
O338        C345   1.276       .  A
O339       Cu342   2.015       .  S
O339        C344   1.279       .  A
O340       Cu342   2.012       .  S
O340        C343   1.278       .  A
Cu341      Cu342   2.375       .  S
C343       C4358   1.470       .  S
C344       C3289   1.479       .  S
C345       C3318   1.476       .  S
C346       C4838   1.475       .  S
O347       Cu355   2.015       .  S
O347        C357   1.278       .  A
O348       Cu355   2.017       .  S
O348        C358   1.278       .  A
O349       Cu355   2.017       .  S
O349        C359   1.278       .  A
O350       Cu355   2.024       .  S
O350        C360   1.279       .  A
O351       Cu356   2.013       .  S
O351        C360   1.278       .  A
O352       Cu356   2.009       .  S
O352        C359   1.277       .  A
O353       Cu356   2.010       .  S
O353        C358   1.276       .  A
O354       Cu356   2.005       .  S
O354        C357   1.276       .  A
Cu355      Cu356   2.356       .  S
C357       C4598   1.499       .  S
C358       C3278   1.504       .  S
C359       C3298   1.485       .  S
C360       C5029   1.486       .  S
O361       Cu369   2.012       .  S
O361        C371   1.277       .  A
O362       Cu369   2.015       .  S
O362        C372   1.277       .  A
O363       Cu369   2.016       .  S
O363        C373   1.278       .  A
O364       Cu369   2.013       .  S
O364        C374   1.279       .  A
O365       Cu370   2.001       .  S
O365        C374   1.276       .  A
O366       Cu370   2.002       .  S
O366        C373   1.277       .  A
O367       Cu370   2.027       .  S
O367        C372   1.280       .  A
O368       Cu370   2.022       .  S
O368        C371   1.279       .  A
Cu369      Cu370   2.369       .  S
C371       C3229   1.481       .  S
C372       C3538   1.482       .  S
C373       C3909   1.490       .  S
C374       C3249   1.486       .  S
O375       Cu383   2.001       .  S
O375        C385   1.277       .  A
O376       Cu383   2.021       .  S
O376        C386   1.279       .  A
O377       Cu383   2.011       .  S
O377        C387   1.277       .  A
O378       Cu383   2.009       .  S
O378        C388   1.278       .  A
O379       Cu384   2.019       .  S
O379        C388   1.279       .  A
O380       Cu384   2.019       .  S
O380        C387   1.279       .  A
O381       Cu384   2.024       .  S
O381        C386   1.279       .  A
O382       Cu384   2.021       .  S
O382        C385   1.279       .  A
Cu383      Cu384   2.369       .  S
C385       C3209   1.484       .  S
C386       C3478   1.494       .  S
C387       C3829   1.477       .  S
C388       C3238   1.492       .  S
O389       Cu397   2.022       .  S
O389        C399   1.279       .  A
O390       Cu397   2.018       .  S
O390        C400   1.277       .  A
O391       Cu397   2.000       .  S
O391        C401   1.276       .  A
O392       Cu397   2.006       .  S
O392        C402   1.277       .  A
O393       Cu398   1.987       .  S
O393        C402   1.274       .  A
O394       Cu398   2.002       .  S
O394        C401   1.277       .  A
O395       Cu398   2.022       .  S
O395        C400   1.278       .  A
O396       Cu398   2.025       .  S
O396        C399   1.280       .  A
Cu397      Cu398   2.367       .  S
C399       C3169   1.495       .  S
C400       C4638   1.511       .  S
C401       C4238   1.471       .  S
C402       C3189   1.465       .  S
O403       Cu411   2.013       .  S
O403        C413   1.278       .  A
O404       Cu411   2.014       .  S
O404        C414   1.278       .  A
O405       Cu411   2.016       .  S
O405        C415   1.278       .  A
O406       Cu411   2.002       .  S
O406        C416   1.277       .  A
O407       Cu412   2.011       .  S
O407        C416   1.277       .  A
O408       Cu412   2.015       .  S
O408        C415   1.278       .  A
O409       Cu412   2.034       .  S
O409        C414   1.281       .  A
O410       Cu412   2.035       .  S
O410        C413   1.281       .  A
Cu411      Cu412   2.370       .  S
C413       C3178   1.494       .  S
C414       C4278   1.500       .  S
C415       C4758   1.478       .  S
C416       C3149   1.473       .  S
O417       Cu425   2.016       .  S
O417        C427   1.279       .  A
O418       Cu425   2.024       .  S
O418        C428   1.280       .  A
O419       Cu425   2.004       .  S
O419        C429   1.277       .  A
O420       Cu425   2.013       .  S
O420        C430   1.278       .  A
O421       Cu426   2.020       .  S
O421        C430   1.279       .  A
O422       Cu426   2.010       .  S
O422        C429   1.278       .  A
O423       Cu426   2.018       .  S
O423        C428   1.279       .  A
O424       Cu426   2.013       .  S
O424        C427   1.278       .  A
Cu425      Cu426   2.371       .  S
C427       C4158   1.487       .  S
C428       C3109   1.493       .  S
C429       C3129   1.477       .  S
C430       C3678   1.483       .  S
O431       Cu439   2.024       .  S
O431        C441   1.279       .  A
O432       Cu439   2.020       .  S
O432        C442   1.279       .  A
O433       Cu439   2.008       .  S
O433        C443   1.277       .  A
O434       Cu439   2.009       .  S
O434        C444   1.277       .  A
O435       Cu440   2.001       .  S
O435        C444   1.276       .  A
O436       Cu440   2.005       .  S
O436        C443   1.277       .  A
O437       Cu440   2.020       .  S
O437        C442   1.279       .  A
O438       Cu440   2.019       .  S
O438        C441   1.279       .  A
Cu439      Cu440   2.372       .  S
C441       C3118   1.491       .  S
C442       C3629   1.494       .  S
C443       C4078   1.471       .  S
C444       C3089   1.472       .  S
C445        C446   1.540       .  S
C445        C451   1.535       .  S
C445        C449   1.541       .  S
C445       C3069   1.558       .  S
C446        H453   1.080       .  S
C446        C447   1.370       .  D
C447        C448   1.553       .  S
C447       C3038   1.499       .  S
C448        C452   1.548       .  S
C448        C450   1.550       .  S
C448        H454   1.107       .  S
C449        H455   1.085       .  S
C449        C450   1.374       .  D
C450       C3049   1.516       .  S
C451        H456   1.086       .  S
C451        C452   1.360       .  D
C452       C4478   1.494       .  S
C457        C458   1.531       .  S
C457        C463   1.531       .  S
C457        C461   1.554       .  S
C457       C2998   1.553       .  S
C458        H465   1.086       .  S
C458        C459   1.366       .  D
C459        C460   1.553       .  S
C459       C3009   1.497       .  S
C460        C464   1.555       .  S
C460        C462   1.551       .  S
C460        H466   1.106       .  S
C461        H467   1.084       .  S
C461        C462   1.376       .  D
C462       C3818   1.517       .  S
C463        H468   1.084       .  S
C463        C464   1.363       .  D
C464       C4709   1.510       .  S
O469       Cu477   2.013       .  S
O469        C479   1.278       .  A
O470       Cu477   2.014   1_565  S
O470        C480   1.279       .  A
O471       Cu477   2.019       .  S
O471        C481   1.278       .  A
O472       Cu477   2.022   1_565  S
O472        C482   1.278       .  A
O473       Cu478   2.019   1_565  S
O473        C482   1.278       .  A
O474       Cu478   2.017       .  S
O474        C481   1.278       .  A
O475       Cu478   2.012   1_565  S
O475        C480   1.278       .  A
O476       Cu478   2.008       .  S
O476        C479   1.278       .  A
Cu477      Cu478   2.368       .  S
C479       C2958   1.491       .  S
C480       C3938   1.492       .  S
C481       C4438   1.483       .  S
C482       C2978   1.480       .  S
O483       Cu491   2.024       .  S
O483        C493   1.277       .  A
O484       Cu491   2.022   1_554  S
O484        C494   1.279       .  A
O485       Cu491   2.011       .  S
O485        C495   1.278       .  A
O486       Cu491   2.002   1_554  S
O486        C496   1.277       .  A
O487       Cu492   2.009   1_554  S
O487        C496   1.277       .  A
O488       Cu492   2.014       .  S
O488        C495   1.277       .  A
O489       Cu492   2.030   1_554  S
O489        C494   1.281       .  A
O490       Cu492   2.022       .  S
O490        C493   1.277       .  A
Cu491      Cu492   2.362       .  S
C493       C2969   1.520       .  S
C494       C4729   1.490       .  S
C495       C3698   1.489       .  S
C496       C2929   1.477       .  S
C497        C498   1.543       .  S
C497        C503   1.527       .  S
C497        C501   1.549       .  S
C497       C2909   1.557       .  S
C498        H505   1.080       .  S
C498        C499   1.369       .  D
C499        C500   1.547       .  S
C499       C4418   1.500       .  S
C500        C504   1.546       .  S
C500        C502   1.554       .  S
C500        H506   1.107       .  S
C501        H507   1.085       .  S
C501        C502   1.378       .  D
C502       C2898   1.522       .  S
C503        H508   1.087       .  S
C503        C504   1.360       .  D
C504       C3618   1.494       .  S
O509       Cu517   2.015   1_554  S
O509        C519   1.279       .  A
O510       Cu517   2.019       .  S
O510        C520   1.279       .  A
O511       Cu517   2.007   1_554  S
O511        C521   1.277       .  A
O512       Cu517   2.007       .  S
O512        C522   1.277       .  A
O513       Cu518   2.013       .  S
O513        C522   1.278       .  A
O514       Cu518   2.009   1_554  S
O514        C521   1.278       .  A
O515       Cu518   2.001       .  S
O515        C520   1.276       .  A
O516       Cu518   1.998   1_554  S
O516        C519   1.276       .  A
Cu517      Cu518   2.371       .  S
C519       C2858   1.483       .  S
C520       C2889   1.490       .  S
C521       C2869   1.474       .  S
C522       C2949   1.477       .  S
O523       Cu531   2.018       .  S
O523        C533   1.279       .  A
O524       Cu531   2.026   1_565  S
O524        C534   1.279       .  A
O525       Cu531   2.005       .  S
O525        C535   1.276       .  A
O526       Cu531   2.017   1_565  S
O526        C536   1.278       .  A
O527       Cu532   2.005   1_565  S
O527        C536   1.277       .  A
O528       Cu532   2.025       .  S
O528        C535   1.280       .  A
O529       Cu532   1.993   1_565  S
O529        C534   1.274       .  A
O530       Cu532   1.997       .  S
O530        C533   1.276       .  A
Cu531      Cu532   2.363       .  S
C533       C3058   1.487       .  S
C534       C2938   1.501       .  S
C535       C2849   1.486       .  S
C536       C2989   1.492       .  S
C537        C538   1.537       .  S
C537        C543   1.522       .  S
C537        C541   1.550       .  S
C537       C2829   1.548       .  S
C538        H545   1.083       .  S
C538        C539   1.363       .  D
C539        C540   1.549       .  S
C539       C2878   1.497       .  S
C540        C544   1.550       .  S
C540        C542   1.552       .  S
C540        H546   1.108       .  S
C541        H547   1.085       .  S
C541        C542   1.378       .  D
C542       C3029   1.512       .  S
C543        H548   1.087       .  S
C543        C544   1.361       .  D
C544       C4618   1.495       .  S
O549       Cu557   2.013   1_554  S
O549        C559   1.278       .  A
O550       Cu557   2.016       .  S
O550        C560   1.279       .  A
O551       Cu557   2.003   1_554  S
O551        C561   1.277       .  A
O552       Cu557   1.990       .  S
O552        C562   1.275       .  A
O553       Cu558   2.010       .  S
O553        C562   1.278       .  A
O554       Cu558   2.010   1_554  S
O554        C561   1.278       .  A
O555       Cu558   2.011       .  S
O555        C560   1.277       .  A
O556       Cu558   2.003   1_554  S
O556        C559   1.277       .  A
Cu557      Cu558   2.370       .  S
C559       C2789   1.479       .  S
C560       C4178   1.497       .  S
C561       C4318   1.479       .  S
C562       C2809   1.468       .  S
O563       Cu571   2.015       .  S
O563        C573   1.278       .  A
O564       Cu571   2.015   1_565  S
O564        C574   1.279       .  A
O565       Cu571   1.991       .  S
O565        C575   1.275       .  A
O566       Cu571   1.988   1_565  S
O566        C576   1.275       .  A
O567       Cu572   1.999   1_565  S
O567        C576   1.277       .  A
O568       Cu572   2.005       .  S
O568        C575   1.277       .  A
O569       Cu572   2.016   1_565  S
O569        C574   1.278       .  A
O570       Cu572   2.005       .  S
O570        C573   1.277       .  A
Cu571      Cu572   2.370       .  S
C573       C2769   1.477       .  S
C574       C3549   1.480       .  S
C575       C4918   1.483       .  S
C576       C2818   1.476       .  S
C577        C578   1.527       .  S
C577        C583   1.548       .  S
C577        C581   1.541       .  S
C577       C2709   1.553       .  S
C578        H585   1.086       .  S
C578        C579   1.362       .  D
C579        C580   1.545       .  S
C579       C4298   1.487       .  S
C580        C584   1.549       .  S
C580        C582   1.550       .  S
C580        H586   1.106       .  S
C581        H587   1.075       .  S
C581        C582   1.370       .  D
C582       C2749   1.514       .  S
C583        H588   1.086       .  S
C583        C584   1.374       .  D
C584       C2729   1.509       .  S
O589       Cu597   2.009       .  S
O589        C599   1.276       .  A
O590       Cu597   2.005   1_565  S
O590        C600   1.277       .  A
O591       Cu597   2.027       .  S
O591        C601   1.280       .  A
O592       Cu597   2.018   1_565  S
O592        C602   1.279       .  A
O593       Cu598   2.013   1_565  S
O593        C602   1.277       .  A
O594       Cu598   1.996       .  S
O594        C601   1.276       .  A
O595       Cu598   2.010   1_565  S
O595        C600   1.278       .  A
O596       Cu598   2.018       .  S
O596        C599   1.278       .  A
Cu597      Cu598   2.366       .  S
C599       C2689   1.505       .  S
C600       C2798   1.480       .  S
C601       C2678   1.482       .  S
C602       C2758   1.489       .  S
O603       Cu611   2.006       .  S
O603        C613   1.277       .  A
O604       Cu611   2.006   1_556  S
O604        C614   1.277       .  A
O605       Cu611   2.002       .  S
O605        C615   1.277       .  A
O606       Cu611   2.007   1_556  S
O606        C616   1.277       .  A
O607       Cu612   2.008   1_556  S
O607        C616   1.278       .  A
O608       Cu612   2.014       .  S
O608        C615   1.278       .  A
O609       Cu612   2.006   1_556  S
O609        C614   1.277       .  A
O610       Cu612   2.010       .  S
O610        C613   1.278       .  A
Cu611      Cu612   2.370       .  S
C613       C2638   1.488       .  S
C614       C2778   1.478       .  S
C615       C2669   1.479       .  S
C616       C2649   1.481       .  S
C617        C618   1.529       .  S
C617        C623   1.537       .  S
C617        C621   1.554       .  S
C617       C2658   1.554       .  S
C618        H625   1.086       .  S
C618        C619   1.360       .  D
C619        C620   1.547       .  S
C619       C2609   1.490       .  S
C620        C624   1.555       .  S
C620        C622   1.550       .  S
C620        H626   1.106       .  S
C621        H627   1.082       .  S
C621        C622   1.377       .  D
C622       C2589   1.518       .  S
C623        H628   1.086       .  S
C623        C624   1.369       .  D
C624       C4898   1.511       .  S
C629        C630   1.551       .  S
C629        C635   1.530       .  S
C629        C633   1.528       .  S
C629       C2549   1.549       .  S
C630        H637   1.081       .  S
C630        C631   1.370       .  D
C631        C632   1.540       .  S
C631       C2569   1.505       .  S
C632        C636   1.556       .  S
C632        C634   1.559       .  S
C632        H638   1.098       .  S
C633        H639   1.087       .  S
C633        C634   1.358       .  D
C634       C5018   1.490       .  S
C635        H640   1.085       .  S
C635        C636   1.373       .  D
C636       C2529   1.518       .  S
C641        C642   1.549       .  S
C641        C647   1.518       .  S
C641        C645   1.540       .  S
C641       C2489   1.542       .  S
C642        H649   1.082       .  S
C642        C643   1.372       .  D
C643        C644   1.551       .  S
C643       C2469   1.518       .  S
C644        C648   1.551       .  S
C644        C646   1.554       .  S
C644        H650   1.107       .  S
C645        H651   1.053       .  S
C645        C646   1.373       .  D
C646       C2509   1.505       .  S
C647        H652   1.086       .  S
C647        C648   1.356       .  D
C648       C4198   1.482       .  S
O653       Cu661   2.025   1_455  S
O653        C663   1.280       .  A
O654       Cu661   2.021       .  S
O654        C664   1.278       .  A
O655       Cu661   2.012   1_455  S
O655        C665   1.277       .  A
O656       Cu661   2.029       .  S
O656        C666   1.280       .  A
O657       Cu662   2.025       .  S
O657        C666   1.279       .  A
O658       Cu662   2.011   1_455  S
O658        C665   1.277       .  A
O659       Cu662   2.016       .  S
O659        C664   1.279       .  A
O660       Cu662   2.016   1_455  S
O660        C663   1.278       .  A
Cu661      Cu662   2.363       .  S
C663       C4809   1.501       .  S
C664       C2449   1.503       .  S
C665       C2429   1.475       .  S
C666       C3589   1.494       .  S
O667       Cu675   2.027       .  S
O667        C677   1.280       .  A
O668       Cu675   2.020   1_556  S
O668        C678   1.279       .  A
O669       Cu675   2.016       .  S
O669        C679   1.277       .  A
O670       Cu675   2.008   1_556  S
O670        C680   1.277       .  A
O671       Cu676   2.015       .  S
O671        C680   1.279       .  A
O672       Cu676   2.017   1_554  S
O672        C679   1.277       .  A
O673       Cu676   2.004       .  S
O673        C678   1.276       .  A
O674       Cu676   1.989   1_554  S
O674        C677   1.275       .  A
Cu675      Cu676   2.366   1_554  S
C677       C4218   1.483       .  S
C678       C2458   1.483       .  S
C679       C2409   1.507       .  S
C680       C4098   1.480       .  S
C681        C682   1.554       .  S
C681        C687   1.538       .  S
C681        C685   1.515       .  S
C681       C2369   1.547       .  S
C682        H689   1.080       .  S
C682        C683   1.377       .  D
C683        C684   1.543       .  S
C683       C2398   1.522       .  S
C684        C688   1.546       .  S
C684        C686   1.562       .  S
C684        H690   1.097       .  S
C685        H691   1.087       .  S
C685        C686   1.357       .  D
C686       C4129   1.482       .  S
C687        H692   1.084       .  S
C687        C688   1.367       .  D
C688       C4798   1.511       .  S
O693       Cu701   2.017   1_556  S
O693        C703   1.278       .  A
O694       Cu701   2.014       .  S
O694        C704   1.279       .  A
O695       Cu701   2.004   1_556  S
O695        C705   1.277       .  A
O696       Cu701   2.002       .  S
O696        C706   1.277       .  A
O697       Cu702   2.028       .  S
O697        C706   1.280       .  A
O698       Cu702   2.022   1_556  S
O698        C705   1.279       .  A
O699       Cu702   1.993       .  S
O699        C704   1.275       .  A
O700       Cu702   2.005   1_556  S
O700        C703   1.277       .  A
Cu701      Cu702   2.370       .  S
C703       C2378   1.483       .  S
C704       C2338   1.469       .  S
C705       C2438   1.493       .  S
C706       C2349   1.485       .  S
O707       Cu715   2.011   1_455  S
O707        C717   1.279       .  A
O708       Cu715   2.026       .  S
O708        C718   1.281       .  A
O709       Cu715   1.976   1_455  S
O709        C719   1.271       .  A
O710       Cu715   1.983       .  S
O710        C720   1.273       .  A
O711       Cu716   2.030       .  S
O711        C720   1.281       .  A
O712       Cu716   2.026   1_455  S
O712        C719   1.280       .  A
O713       Cu716   2.009       .  S
O713        C718   1.276       .  A
O714       Cu716   2.021   1_455  S
O714        C717   1.278       .  A
Cu715      Cu716   2.366       .  S
C717       C2558   1.487       .  S
C718       C2418   1.483       .  S
C719       C2329   1.494       .  S
C720       C2498   1.476       .  S
C721        C722   1.541       .  S
C721        C727   1.548       .  S
C721        C725   1.521       .  S
C721       C2358   1.549       .  S
C722        H729   1.080       .  S
C722        C723   1.367       .  D
C723        C724   1.546       .  S
C723       C4258   1.511       .  S
C724        C728   1.544       .  S
C724        C726   1.562       .  S
C724        H730   1.094       .  S
C725        H731   1.087       .  S
C725        C726   1.359       .  D
C726       C2309   1.490       .  S
C727        H732   1.084       .  S
C727        C728   1.377       .  D
C728       C2538   1.518       .  S
O733       Cu741   2.017       .  S
O733        C743   1.279       .  A
O734       Cu741   2.015   1_556  S
O734        C744   1.279       .  A
O735       Cu741   1.998       .  S
O735        C745   1.276       .  A
O736       Cu741   2.001   1_556  S
O736        C746   1.276       .  A
O737       Cu742   2.016   1_556  S
O737        C746   1.279       .  A
O738       Cu742   2.020       .  S
O738        C745   1.279       .  A
O739       Cu742   2.001   1_556  S
O739        C744   1.277       .  A
O740       Cu742   2.001       .  S
O740        C743   1.277       .  A
Cu741      Cu742   2.374       .  S
C743       C2269   1.480       .  S
C744       C3649   1.484       .  S
C745       C4678   1.475       .  S
C746       C2289   1.476       .  S
O747       Cu755   2.008       .  S
O747        C757   1.278       .  A
O748       Cu755   2.025   1_455  S
O748        C758   1.280       .  A
O749       Cu755   1.996       .  S
O749        C759   1.275       .  A
O750       Cu755   1.984   1_455  S
O750        C760   1.274       .  A
O751       Cu756   2.017   1_455  S
O751        C760   1.280       .  A
O752       Cu756   2.028       .  S
O752        C759   1.280       .  A
O753       Cu756   1.996   1_455  S
O753        C758   1.275       .  A
O754       Cu756   2.012       .  S
O754        C757   1.277       .  A
Cu755      Cu756   2.366       .  S
C757       C4018   1.483       .  S
C758       C2249   1.483       .  S
C759       C2298   1.502       .  S
C760       C4389   1.479       .  S
O761       Cu769   2.035   1_455  S
O761        C771   1.280       .  A
O762       Cu769   2.025       .  S
O762        C772   1.280       .  A
O763       Cu769   2.004   1_455  S
O763        C773   1.276       .  A
O764       Cu769   2.014       .  S
O764        C774   1.278       .  A
O765       Cu770   2.005       .  S
O765        C774   1.277       .  A
O766       Cu770   2.024   1_455  S
O766        C773   1.280       .  A
O767       Cu770   2.018       .  S
O767        C772   1.277       .  A
O768       Cu770   2.019   1_455  S
O768        C771   1.278       .  A
Cu769      Cu770   2.362       .  S
C771       C2198   1.512       .  S
C772       C2238   1.504       .  S
C773       C2209   1.484       .  S
C774       C2278   1.480       .  S
C775        C776   1.549       .  S
C775        C781   1.540       .  S
C775        C779   1.533       .  S
C775       C2229   1.553       .  S
C776        H783   1.081       .  S
C776        C777   1.367       .  D
C777        C778   1.541       .  S
C777       C2178   1.506       .  S
C778        C782   1.544       .  S
C778        C780   1.551       .  S
C778        H784   1.106       .  S
C779        H785   1.085       .  S
C779        C780   1.373       .  D
C780       C2149   1.510       .  S
C781        H786   1.085       .  S
C781        C782   1.365       .  D
C782       C4658   1.488       .  S
O787       Cu795   2.009       .  S
O787        C797   1.277       .  A
O788       Cu795   2.005   1_554  S
O788        C798   1.275       .  A
O789       Cu795   2.021       .  S
O789        C799   1.279       .  A
O790       Cu795   2.035   1_554  S
O790        C800   1.281       .  A
O791       Cu796   2.021   1_554  S
O791        C800   1.278       .  A
O792       Cu796   2.026       .  S
O792        C799   1.279       .  A
O793       Cu796   2.020   1_554  S
O793        C798   1.279       .  A
O794       Cu796   2.006       .  S
O794        C797   1.277       .  A
Cu795      Cu796   2.364       .  S
C797       C2258   1.478       .  S
C798       C2109   1.499       .  S
C799       C2138   1.506       .  S
C800       C2189   1.492       .  S
C801        C802   1.540       .  S
C801        C807   1.550       .  S
C801        C805   1.515       .  S
C801       C2089   1.542       .  S
C802        H809   1.081       .  S
C802        C803   1.368       .  D
C803        C804   1.545       .  S
C803       C2598   1.512       .  S
C804        C808   1.545       .  S
C804        C806   1.562       .  S
C804        H810   1.095       .  S
C805        H811   1.087       .  S
C805        C806   1.357       .  D
C806       C4378   1.481       .  S
C807        H812   1.083       .  S
C807        C808   1.375       .  D
C808       C2129   1.522       .  S
C813        C814   1.533       .  S
C813        C819   1.538       .  S
C813        C817   1.542       .  S
C813       C2029   1.548       .  S
C814        H821   1.086       .  S
C814        C815   1.368       .  D
C815        C816   1.551       .  S
C815       C2058   1.497       .  S
C816        C820   1.548       .  S
C816        C818   1.543       .  S
C816        H822   1.109       .  S
C817        H823   1.077       .  S
C817        C818   1.359       .  D
C818       C2069   1.490       .  S
C819        H824   1.086       .  S
C819        C820   1.372       .  D
C820       C4338   1.498       .  S
C825        C826   1.556       .  S
C825        C831   1.530       .  S
C825        C829   1.524       .  S
C825       C1989   1.554       .  S
C826        H833   1.081       .  S
C826        C827   1.376       .  D
C827        C828   1.539       .  S
C827       C2009   1.512       .  S
C828        C832   1.550       .  S
C828        C830   1.559       .  S
C828        H834   1.094       .  S
C829        H835   1.087       .  S
C829        C830   1.357       .  D
C830       C3969   1.482       .  S
C831        H836   1.085       .  S
C831        C832   1.370       .  D
C832       C4958   1.523       .  S
O837       Cu845   2.002       .  S
O837        C847   1.277       .  A
O838       Cu845   1.990       .  S
O838        C848   1.275   1_655  A
O839       Cu845   2.017       .  S
O839        C849   1.279       .  A
O840       Cu845   2.012       .  S
O840        C850   1.278   1_655  A
O841       Cu846   2.007       .  S
O841        C850   1.277   1_655  A
O842       Cu846   2.012       .  S
O842        C849   1.278       .  A
O843       Cu846   1.998   1_455  S
O843        C848   1.277       .  A
O844       Cu846   1.998       .  S
O844        C847   1.277       .  A
Cu845      Cu846   2.374       .  S
C847       C3778   1.472       .  S
C848       C1949   1.466       .  S
C849       C1969   1.483       .  S
C850       C4578   1.486       .  S
O851       Cu859   2.011       .  S
O851        C861   1.277       .  A
O852       Cu859   2.010   1_565  S
O852        C862   1.277       .  A
O853       Cu859   2.014       .  S
O853        C863   1.279       .  A
O854       Cu859   2.013   1_565  S
O854        C864   1.278       .  A
O855       Cu860   2.021   1_565  S
O855        C864   1.279       .  A
O856       Cu860   2.029       .  S
O856        C863   1.280       .  A
O857       Cu860   2.025   1_565  S
O857        C862   1.279       .  A
O858       Cu860   2.022       .  S
O858        C861   1.279       .  A
Cu859      Cu860   2.371       .  S
C861       C1938   1.479       .  S
C862       C3498   1.482       .  S
C863       C4978   1.491       .  S
C864       C1978   1.491       .  S
C865        C866   1.553       .  S
C865        C871   1.534       .  S
C865        C869   1.530       .  S
C865       C1909   1.557       .  S
C866        H873   1.084       .  S
C866        C867   1.377       .  D
C867        C868   1.545       .  S
C867       C4558   1.513       .  S
C868        C872   1.552       .  S
C868        C870   1.560       .  S
C868        H874   1.098       .  S
C869        H875   1.085       .  S
C869        C870   1.355       .  D
C870       C1898   1.489       .  S
C871        H876   1.086       .  S
C871        C872   1.372       .  D
C872       C3518   1.523       .  S
O877       Cu885   2.018   1_545  S
O877        C887   1.278       .  A
O878       Cu885   2.019       .  S
O878        C888   1.280       .  A
O879       Cu885   1.999   1_545  S
O879        C889   1.275       .  A
O880       Cu885   1.987       .  S
O880        C890   1.275       .  A
O881       Cu886   1.994       .  S
O881        C890   1.276       .  A
O882       Cu886   2.006   1_545  S
O882        C889   1.277       .  A
O883       Cu886   2.013       .  S
O883        C888   1.277       .  A
O884       Cu886   2.005   1_545  S
O884        C887   1.278       .  A
Cu885      Cu886   2.371       .  S
C887       C1858   1.489       .  S
C888       C1889   1.492       .  S
C889       C1869   1.465       .  S
C890       C1958   1.465       .  S
O891       Cu899   2.012       .  S
O891        C901   1.278       .  A
O892       Cu899   2.008   1_455  S
O892        C902   1.278       .  A
O893       Cu899   2.010       .  S
O893        C903   1.277       .  A
O894       Cu899   2.007   1_455  S
O894        C904   1.277       .  A
O895       Cu900   2.009   1_455  S
O895        C904   1.277       .  A
O896       Cu900   2.000       .  S
O896        C903   1.276       .  A
O897       Cu900   2.015   1_455  S
O897        C902   1.279       .  A
O898       Cu900   2.016       .  S
O898        C901   1.278       .  A
Cu899      Cu900   2.370       .  S
C901       C1929   1.498       .  S
C902       C2049   1.485       .  S
C903       C1998   1.470       .  S
C904       C1849   1.476       .  S
C905        C906   1.549       .  S
C905        C911   1.540       .  S
C905        C909   1.531       .  S
C905       C1829   1.556       .  S
C906        H913   1.086       .  S
C906        C907   1.374       .  D
C907        C908   1.545       .  S
C907       C1878   1.501       .  S
C908        C912   1.543       .  S
C908        C910   1.541       .  S
C908        H914   1.108       .  S
C909        H915   1.086       .  S
C909        C910   1.365       .  D
C910       C2038   1.488       .  S
C911        H916   1.081       .  S
C911        C912   1.368       .  D
C912       C4858   1.502       .  S
O917       Cu925   2.017       .  S
O917        C927   1.278       .  A
O918       Cu925   2.007   1_545  S
O918        C928   1.277       .  A
O919       Cu925   2.016       .  S
O919        C929   1.279       .  A
O920       Cu925   2.013   1_545  S
O920        C930   1.278       .  A
O921       Cu926   2.010   1_545  S
O921        C930   1.277       .  A
O922       Cu926   2.016       .  S
O922        C929   1.278       .  A
O923       Cu926   2.003   1_545  S
O923        C928   1.277       .  A
O924       Cu926   2.014       .  S
O924        C927   1.279       .  A
Cu925      Cu926   2.370       .  S
C927       C1809   1.490       .  S
C928       C4529   1.484       .  S
C929       C3858   1.483       .  S
C930       C1789   1.476       .  S
O931       Cu939   2.025       .  S
O931        C941   1.279       .  A
O932       Cu939   2.009       .  S
O932        C942   1.278   1_655  A
O933       Cu939   2.015       .  S
O933        C943   1.277       .  A
O934       Cu939   2.012   1_455  S
O934        C944   1.277       .  A
O935       Cu940   2.013   1_455  S
O935        C944   1.279       .  A
O936       Cu940   2.002       .  S
O936        C943   1.275       .  A
O937       Cu940   2.014       .  S
O937        C942   1.277   1_655  A
O938       Cu940   2.000       .  S
O938        C941   1.276       .  A
Cu939      Cu940   2.361       .  S
C941       C1818   1.484       .  S
C942       C5078   1.493       .  S
C943       C1749   1.505       .  S
C944       C1769   1.486       .  S
O945       Cu953   2.020       .  S
O945        C955   1.278       .  A
O946       Cu953   2.014       .  S
O946        C956   1.279   1_655  A
O947       Cu953   2.024       .  S
O947        C957   1.279       .  A
O948       Cu953   2.011       .  S
O948        C958   1.277       .  A
O949       Cu954   2.031       .  S
O949        C958   1.280       .  A
O950       Cu954   2.018       .  S
O950        C957   1.278       .  A
O951       Cu954   2.007       .  S
O951        C956   1.277   1_655  A
O952       Cu954   2.013       .  S
O952        C955   1.277       .  A
Cu953      Cu954   2.365       .  S
C955       C1798   1.506       .  S
C956       C1709   1.483       .  S
C957       C1729   1.486       .  S
C958       C1689   1.486   1_655  S
C959        C960   1.527       .  S
C959        C965   1.544       .  S
C959        C963   1.544       .  S
C959       C1738   1.554       .  S
C960        H967   1.087       .  S
C960        C961   1.360       .  D
C961        C962   1.544       .  S
C961       C2158   1.482       .  S
C962        C966   1.547       .  S
C962        C964   1.547       .  S
C962        H968   1.105       .  S
C963        H969   1.077       .  S
C963        C964   1.374       .  D
C964       C1678   1.507       .  S
C965        H970   1.086       .  S
C965        C966   1.370       .  D
C966       C4518   1.511       .  S
O971       Cu979   2.001   1_565  S
O971        C981   1.276       .  A
O972       Cu979   2.008       .  S
O972        C982   1.278       .  A
O973       Cu979   2.018   1_565  S
O973        C983   1.279       .  A
O974       Cu979   2.023       .  S
O974        C984   1.278       .  A
O975       Cu980   2.016   1_545  S
O975        C984   1.277       .  A
O976       Cu980   2.002       .  S
O976        C983   1.277       .  A
O977       Cu980   2.010   1_545  S
O977        C982   1.277       .  A
O978       Cu980   2.018       .  S
O978        C981   1.279       .  A
Cu979      Cu980   2.367   1_545  S
C981       C1778   1.482       .  S
C982       C1638   1.475       .  S
C983       C1658   1.479       .  S
C984       C1698   1.512       .  S
C985        C986   1.551       .  S
C985        C991   1.526       .  S
C985        C989   1.532       .  S
C985       C1649   1.551       .  S
C986        H993   1.083       .  S
C986        C987   1.374       .  D
C987        C988   1.549       .  S
C987       C1618   1.506       .  S
C988        C992   1.554       .  S
C988        C990   1.553       .  S
C988        H994   1.109       .  S
C989        H995   1.086       .  S
C989        C990   1.360       .  D
C990       C2738   1.495       .  S
C991        H996   1.087       .  S
C991        C992   1.366       .  D
C992       C5049   1.503       .  S
C997        C998   1.536       .  S
C997       C1003   1.527       .  S
C997       C1001   1.548       .  S
C997       C1589   1.549       .  S
C998       H1005   1.085       .  S
C998        C999   1.365       .  D
C999       C1000   1.547       .  S
C999       C1718   1.492       .  S
C1000      C1004   1.546       .  S
C1000      C1002   1.547       .  S
C1000      H1006   1.108       .  S
C1001      H1007   1.084       .  S
C1001      C1002   1.374       .  D
C1002      C1549   1.504       .  S
C1003      H1008   1.087       .  S
C1003      C1004   1.364       .  D
C1004      C1569   1.494       .  S
C1009      C1010   1.532       .  S
C1009      C1015   1.539       .  S
C1009      C1013   1.542       .  S
C1009      C1558   1.550       .  S
C1010      H1017   1.086       .  S
C1010      C1011   1.369       .  D
C1011      C1012   1.550       .  S
C1011      C1529   1.501       .  S
C1012      C1016   1.546       .  S
C1012      C1014   1.543       .  S
C1012      H1018   1.107       .  S
C1013      H1019   1.072       .  S
C1013      C1014   1.365       .  D
C1014      C1518   1.506       .  S
C1015      H1020   1.086       .  S
C1015      C1016   1.369       .  D
C1016      C1629   1.493       .  S
O1021     Cu1029   2.016       .  S
O1021      C1031   1.280       .  A
O1022     Cu1029   2.032       .  S
O1022      C1032   1.281       .  A
O1023     Cu1029   2.007       .  S
O1023      C1033   1.276       .  A
O1024     Cu1029   1.998       .  S
O1024      C1034   1.275       .  A
O1025     Cu1030   2.039       .  S
O1025      C1034   1.282       .  A
O1026     Cu1030   2.024       .  S
O1026      C1033   1.280       .  A
O1027     Cu1030   1.997       .  S
O1027      C1032   1.274       .  A
O1028     Cu1030   1.995       .  S
O1028      C1031   1.275       .  A
Cu1029    Cu1030   2.367       .  S
C1031      C3258   1.473       .  S
C1032      C1609   1.500       .  S
C1033      C1918   1.480       .  S
C1034      C1498   1.495       .  S
O1035     Cu1043   2.009       .  S
O1035      C1045   1.278       .  A
O1036     Cu1043   2.016       .  S
O1036      C1046   1.278       .  A
O1037     Cu1043   2.010       .  S
O1037      C1047   1.278       .  A
O1038     Cu1043   2.009       .  S
O1038      C1048   1.277       .  A
O1039     Cu1044   1.990       .  S
O1039      C1048   1.276       .  A
O1040     Cu1044   1.993       .  S
O1040      C1047   1.275       .  A
O1041     Cu1044   1.998       .  S
O1041      C1046   1.277       .  A
O1042     Cu1044   2.005       .  S
O1042      C1045   1.277       .  A
Cu1043    Cu1044   2.375       .  S
C1045      C1478   1.479       .  S
C1046      C2078   1.479       .  S
C1047      C1598   1.469       .  S
C1048      C3309   1.474       .  S
O1049     Cu1057   2.001       .  S
O1049      C1059   1.275       .  A
O1050     Cu1057   1.998       .  S
O1050      C1060   1.275       .  A
O1051     Cu1057   2.014       .  S
O1051      C1061   1.279       .  A
O1052     Cu1057   2.013       .  S
O1052      C1062   1.278       .  A
O1053     Cu1058   2.019       .  S
O1053      C1062   1.278       .  A
O1054     Cu1058   2.017       .  S
O1054      C1061   1.278       .  A
O1055     Cu1058   2.025       .  S
O1055      C1060   1.280       .  A
O1056     Cu1058   2.029       .  S
O1056      C1059   1.280       .  A
Cu1057    Cu1058   2.368       .  S
C1059      C1538   1.475       .  S
C1060      C3338   1.474       .  S
C1061      C1449   1.494       .  S
C1062      C1838   1.496       .  S
O1063     Cu1071   2.005       .  S
O1063      C1073   1.277       .  A
O1064     Cu1071   1.993       .  S
O1064      C1074   1.275       .  A
O1065     Cu1071   2.006       .  S
O1065      C1075   1.277       .  A
O1066     Cu1071   2.028       .  S
O1066      C1076   1.280       .  A
O1067     Cu1072   1.989       .  S
O1067      C1076   1.275       .  A
O1068     Cu1072   2.003       .  S
O1068      C1075   1.276       .  A
O1069     Cu1072   2.027       .  S
O1069      C1074   1.280       .  A
O1070     Cu1072   2.009       .  S
O1070      C1073   1.278       .  A
Cu1071    Cu1072   2.363       .  S
C1073      C1429   1.487       .  S
C1074      C2018   1.493       .  S
C1075      C1669   1.494       .  S
C1076      C3398   1.484       .  S
C1077      C1078   1.544       .  S
C1077      C1083   1.532       .  S
C1077      C1081   1.538       .  S
C1077      C2218   1.554       .  S
C1078      H1085   1.085       .  S
C1078      C1079   1.379       .  D
C1079      C1080   1.553       .  S
C1079      C1398   1.525       .  S
C1080      C1084   1.557       .  S
C1080      C1082   1.541       .  S
C1080      H1086   1.091       .  S
C1081      H1087   1.086       .  S
C1081      C1082   1.374       .  D
C1082      C1578   1.510       .  S
C1083      H1088   1.083       .  S
C1083      C1084   1.357       .  D
C1084      C1409   1.491       .  S
C1089      C1090   1.542       .  S
C1089      C1095   1.531       .  S
C1089      C1093   1.540       .  S
C1089      C2118   1.550       .  S
C1090      H1097   1.085       .  S
C1090      C1091   1.363       .  D
C1091      C1092   1.544       .  S
C1091      C1389   1.489       .  S
C1092      C1096   1.551       .  S
C1092      C1094   1.549       .  S
C1092      H1098   1.107       .  S
C1093      H1099   1.082       .  S
C1093      C1094   1.368       .  D
C1094      C1378   1.507       .  S
C1095      H1100   1.086       .  S
C1095      C1096   1.370       .  D
C1096      C1349   1.500       .  S
O1101     Cu1109   2.037       .  S
O1101      C1111   1.281       .  A
O1102     Cu1109   2.017       .  S
O1102      C1112   1.278       .  A
O1103     Cu1109   2.002       .  S
O1103      C1113   1.274       .  A
O1104     Cu1109   2.009       .  S
O1104      C1114   1.277       .  A
O1105     Cu1110   2.014       .  S
O1105      C1114   1.278       .  A
O1106     Cu1110   2.020       .  S
O1106      C1113   1.279       .  A
O1107     Cu1110   2.015       .  S
O1107      C1112   1.278       .  A
O1108     Cu1110   2.008       .  S
O1108      C1111   1.277       .  A
Cu1109    Cu1110   2.363       .  S
C1111      C2318   1.489       .  S
C1112      C1338   1.493       .  S
C1113      C3158   1.503       .  S
C1114      C1369   1.489       .  S
O1115     Cu1123   2.010       .  S
O1115      C1125   1.278       .  A
O1116     Cu1123   1.999       .  S
O1116      C1126   1.276       .  A
O1117     Cu1123   2.034       .  S
O1117      C1127   1.281       .  A
O1118     Cu1123   2.028       .  S
O1118      C1128   1.279       .  A
O1119     Cu1124   2.011       .  S
O1119      C1128   1.276       .  A
O1120     Cu1124   2.012       .  S
O1120      C1127   1.279       .  A
O1121     Cu1124   2.008       .  S
O1121      C1126   1.278       .  A
O1122     Cu1124   2.000       .  S
O1122      C1125   1.275       .  A
Cu1123    Cu1124   2.367       .  S
C1125      C2518   1.468       .  S
C1126      C1438   1.473       .  S
C1127      C3458   1.493       .  S
C1128      C2169   1.510       .  S
O1129     Cu1137   2.007       .  S
O1129      C1139   1.277       .  A
O1130     Cu1137   2.002       .  S
O1130      C1140   1.277       .  A
O1131     Cu1137   2.016       .  S
O1131      C1141   1.278       .  A
O1132     Cu1137   2.031       .  S
O1132      C1142   1.280       .  A
O1133     Cu1138   2.018       .  S
O1133      C1142   1.279       .  A
O1134     Cu1138   2.035       .  S
O1134      C1141   1.281       .  A
O1135     Cu1138   2.015       .  S
O1135      C1140   1.278       .  A
O1136     Cu1138   2.009       .  S
O1136      C1139   1.278       .  A
Cu1137    Cu1138   2.364       .  S
C1139      C2098   1.490       .  S
C1140      C3138   1.491       .  S
C1141      C1309   1.490       .  S
C1142      C2389   1.500       .  S
O1143     Cu1151   2.010       .  S
O1143      C1153   1.278       .  A
O1144     Cu1151   2.028       .  S
O1144      C1154   1.278       .  A
O1145     Cu1151   2.008       .  S
O1145      C1155   1.275       .  A
O1146     Cu1151   2.016       .  S
O1146      C1156   1.279       .  A
O1147     Cu1152   2.005       .  S
O1147      C1156   1.276       .  A
O1148     Cu1152   2.012       .  S
O1148      C1155   1.276       .  A
O1149     Cu1152   2.018       .  S
O1149      C1154   1.279       .  A
O1150     Cu1152   2.020       .  S
O1150      C1153   1.279       .  A
Cu1151    Cu1152   2.358       .  S
C1153      C3269   1.483       .  S
C1154      C1418   1.507       .  S
C1155      C2578   1.509       .  S
C1156      C1469   1.481       .  S
C1157      C1158   1.538       .  S
C1157      C1163   1.549       .  S
C1157      C1161   1.523       .  S
C1157      C1298   1.549       .  S
C1158      H1165   1.083       .  S
C1158      C1159   1.369       .  D
C1159      C1160   1.552       .  S
C1159      C2698   1.510       .  S
C1160      C1164   1.549       .  S
C1160      C1162   1.557       .  S
C1160      H1166   1.104       .  S
C1161      H1167   1.087       .  S
C1161      C1162   1.360       .  D
C1162      C1278   1.491       .  S
C1163      H1168   1.085       .  S
C1163      C1164   1.373       .  D
C1164      C1509   1.510       .  S
C1169      C1170   1.548       .  S
C1169      C1175   1.531       .  S
C1169      C1173   1.525       .  S
C1169      C1258   1.544       .  S
C1170      H1177   1.084       .  S
C1170      C1171   1.379       .  D
C1171      C1172   1.551       .  S
C1171      C1269   1.508       .  S
C1172      C1176   1.544       .  S
C1172      C1174   1.550       .  S
C1172      H1178   1.107       .  S
C1173      H1179   1.086       .  S
C1173      C1174   1.366       .  D
C1174      C2629   1.500       .  S
C1175      H1180   1.085       .  S
C1175      C1176   1.358       .  D
C1176      C1358   1.492       .  S
O1181     Cu1189   2.004       .  S
O1181      C1191   1.275       .  A
O1182     Cu1189   2.027       .  S
O1182      C1192   1.280       .  A
O1183     Cu1189   2.019       .  S
O1183      C1193   1.278       .  A
O1184     Cu1189   2.020       .  S
O1184      C1194   1.279       .  A
O1185     Cu1190   2.003       .  S
O1185      C1194   1.275       .  A
O1186     Cu1190   1.998       .  S
O1186      C1193   1.276       .  A
O1187     Cu1190   2.025       .  S
O1187      C1192   1.279       .  A
O1188     Cu1190   2.040       .  S
O1188      C1191   1.281       .  A
Cu1189    Cu1190   2.364       .  S
C1191      C2918   1.482       .  S
C1192      C1318   1.494       .  S
C1193      C3098   1.496       .  S
C1194      C2618   1.497       .  S
O1195     Cu1203   2.012       .  S
O1195      C1205   1.278       .  A
O1196     Cu1203   2.021       .  S
O1196      C1206   1.278       .  A
O1197     Cu1203   2.003       .  S
O1197      C1207   1.277       .  A
O1198     Cu1203   2.026       .  S
O1198      C1208   1.279       .  A
O1199     Cu1204   2.024       .  S
O1199      C1208   1.279       .  A
O1200     Cu1204   2.018       .  S
O1200      C1207   1.278       .  A
O1201     Cu1204   2.009       .  S
O1201      C1206   1.278       .  A
O1202     Cu1204   2.021       .  S
O1202      C1205   1.279       .  A
Cu1203    Cu1204   2.365       .  S
C1205      C1458   1.485       .  S
C1206      C3078   1.495       .  S
C1207      C1289   1.482       .  S
C1208      C3378   1.506       .  S
O1209     Cu1217   2.008       .  S
O1209      C1219   1.277       .  A
O1210     Cu1217   2.000       .  S
O1210      C1220   1.277       .  A
O1211     Cu1217   1.995       .  S
O1211      C1221   1.274       .  A
O1212     Cu1217   2.018       .  S
O1212      C1222   1.278       .  A
O1213     Cu1218   2.004       .  S
O1213      C1222   1.278       .  A
O1214     Cu1218   2.021       .  S
O1214      C1221   1.279       .  A
O1215     Cu1218   1.983       .  S
O1215      C1220   1.274       .  A
O1216     Cu1218   1.985       .  S
O1216      C1219   1.273       .  A
Cu1217    Cu1218   2.370       .  S
C1219      C3198   1.489       .  S
C1220      C1249   1.475       .  S
C1221      C2838   1.469       .  S
C1222      C1329   1.483       .  S
O1223     Cu1231   2.006       .  S
O1223      C1233   1.278       .  A
O1224     Cu1231   2.018       .  S
O1224      C1234   1.279       .  A
O1225     Cu1231   2.018       .  S
O1225      C1235   1.279       .  A
O1226     Cu1231   2.019       .  S
O1226      C1236   1.278       .  A
O1227     Cu1232   2.023       .  S
O1227      C1236   1.280       .  A
O1228     Cu1232   2.022       .  S
O1228      C1235   1.279       .  A
O1229     Cu1232   2.004       .  S
O1229      C1234   1.277       .  A
O1230     Cu1232   2.007       .  S
O1230      C1233   1.277       .  A
Cu1231    Cu1232   2.368       .  S
C1233      C2718   1.481       .  S
C1234      C3218   1.484       .  S
C1235      C1489   1.487       .  S
C1236      C3018   1.496       .  S
C1237      C1238   1.540       .  S
C1237      C1243   1.525       .  S
C1237      C1241   1.546       .  S
C1237      C2478   1.550       .  S
C1238      H1245   1.084       .  S
C1238      C1239   1.362       .  D
C1239      C1240   1.542       .  S
C1239      C3798   1.489       .  S
C1240      C1244   1.546       .  S
C1240      C1242   1.552       .  S
C1240      H1246   1.106       .  S
C1241      H1247   1.086       .  S
C1241      C1242   1.378       .  D
C1242      C1758   1.509       .  S
C1243      H1248   1.087       .  S
C1243      C1244   1.361       .  D
C1244      C3418   1.497       .  S
C1249      C1250   1.416       .  A
C1249      C1254   1.418       .  A
C1250      C1251   1.403       .  A
C1250     Br1262   1.934       .  S
C1251      C1252   1.404       .  A
C1251     Br1266   1.931       .  S
C1252      C1255   1.472       .  S
C1252      C1253   1.405       .  A
C1253      C1254   1.403       .  A
C1253     Br1261   1.933       .  S
C1254     Br1265   1.936       .  S
C1255      C1256   1.401       .  A
C1255      C1260   1.401       .  A
C1256      C1257   1.406       .  A
C1256     Br1267   1.933       .  S
C1257      C1258   1.421       .  A
C1257     Br1263   1.917       .  S
C1258      C1259   1.428       .  A
C1259      C1260   1.401       .  A
C1259     Br1268   1.936       .  S
C1260     Br1264   1.935       .  S
C1269      C1270   1.422       .  A
C1269      C1274   1.415       .  A
C1270      C1271   1.415       .  A
C1270     Br1282   1.925       .  S
C1271      C1272   1.410       .  A
C1271     Br1286   1.931       .  S
C1272      C1275   1.493       .  S
C1272      C1273   1.407       .  A
C1273      C1274   1.400       .  A
C1273     Br1281   1.935       .  S
C1274     Br1285   1.920       .  S
C1275      C1276   1.411       .  A
C1275      C1280   1.411       .  A
C1276      C1277   1.411       .  A
C1276     Br1287   1.932       .  S
C1277      C1278   1.412       .  A
C1277     Br1283   1.917       .  S
C1278      C1279   1.412       .  A
C1279      C1280   1.405       .  A
C1279     Br1288   1.931       .  S
C1280     Br1284   1.933       .  S
C1289      C1290   1.413       .  A
C1289      C1294   1.415       .  A
C1290      C1291   1.407       .  A
C1290     Br1302   1.932       .  S
C1291      C1292   1.409       .  A
C1291     Br1306   1.931       .  S
C1292      C1295   1.486       .  S
C1292      C1293   1.408       .  A
C1293      C1294   1.409       .  A
C1293     Br1301   1.930       .  S
C1294     Br1305   1.932       .  S
C1295      C1296   1.405       .  A
C1295      C1300   1.405       .  A
C1296      C1297   1.408       .  A
C1296     Br1307   1.933       .  S
C1297      C1298   1.421       .  A
C1297     Br1303   1.924       .  S
C1298      C1299   1.427       .  A
C1299      C1300   1.409       .  A
C1299     Br1308   1.936       .  S
C1300     Br1304   1.932       .  S
C1309      C1310   1.415       .  A
C1309      C1314   1.411       .  A
C1310      C1311   1.412       .  A
C1310     Br1322   1.931       .  S
C1311      C1312   1.410       .  A
C1311     Br1326   1.929       .  S
C1312      C1315   1.495       .  S
C1312      C1313   1.411       .  A
C1313      C1314   1.411       .  A
C1313     Br1321   1.930       .  S
C1314     Br1325   1.924       .  S
C1315      C1316   1.411       .  A
C1315      C1320   1.408       .  A
C1316      C1317   1.414       .  A
C1316     Br1327   1.929       .  S
C1317      C1318   1.415       .  A
C1317     Br1323   1.930       .  S
C1318      C1319   1.415       .  A
C1319      C1320   1.410       .  A
C1319     Br1328   1.925       .  S
C1320     Br1324   1.931       .  S
C1329      C1330   1.414       .  A
C1329      C1334   1.413       .  A
C1330      C1331   1.407       .  A
C1330     Br1342   1.933       .  S
C1331      C1332   1.408       .  A
C1331     Br1346   1.929       .  S
C1332      C1335   1.485       .  S
C1332      C1333   1.408       .  A
C1333      C1334   1.408       .  A
C1333     Br1341   1.931       .  S
C1334     Br1345   1.925       .  S
C1335      C1336   1.406       .  A
C1335      C1340   1.406       .  A
C1336      C1337   1.408       .  A
C1336     Br1347   1.933       .  S
C1337      C1338   1.418       .  A
C1337     Br1343   1.928       .  S
C1338      C1339   1.419       .  A
C1339      C1340   1.410       .  A
C1339     Br1348   1.932       .  S
C1340     Br1344   1.930       .  S
C1349      C1350   1.419       .  A
C1349      C1354   1.417       .  A
C1350      C1351   1.407       .  A
C1350     Br1362   1.931       .  S
C1351      C1352   1.408       .  A
C1351     Br1366   1.934       .  S
C1352      C1355   1.488       .  S
C1352      C1353   1.408       .  A
C1353      C1354   1.408       .  A
C1353     Br1361   1.932       .  S
C1354     Br1365   1.923       .  S
C1355      C1356   1.411       .  A
C1355      C1360   1.408       .  A
C1356      C1357   1.410       .  A
C1356     Br1367   1.930       .  S
C1357      C1358   1.412       .  A
C1357     Br1363   1.927       .  S
C1358      C1359   1.418       .  A
C1359      C1360   1.404       .  A
C1359     Br1368   1.936       .  S
C1360     Br1364   1.934       .  S
C1369      C1370   1.417       .  A
C1369      C1374   1.415       .  A
C1370      C1371   1.409       .  A
C1370     Br1382   1.933       .  S
C1371      C1372   1.410       .  A
C1371     Br1386   1.933       .  S
C1372      C1375   1.491       .  S
C1372      C1373   1.409       .  A
C1373      C1374   1.409       .  A
C1373     Br1381   1.931       .  S
C1374     Br1385   1.932       .  S
C1375      C1376   1.407       .  A
C1375      C1380   1.407       .  A
C1376      C1377   1.409       .  A
C1376     Br1387   1.934       .  S
C1377      C1378   1.424       .  A
C1377     Br1383   1.937       .  S
C1378      C1379   1.421       .  A
C1379      C1380   1.411       .  A
C1379     Br1388   1.925       .  S
C1380     Br1384   1.935       .  S
C1389      C1390   1.409       .  A
C1389      C1394   1.413       .  A
C1390      C1391   1.410       .  A
C1390     Br1402   1.921       .  S
C1391      C1392   1.413       .  A
C1391     Br1406   1.931       .  S
C1392      C1395   1.495       .  S
C1392      C1393   1.412       .  A
C1393      C1394   1.406       .  A
C1393     Br1401   1.933       .  S
C1394     Br1405   1.932       .  S
C1395      C1396   1.411       .  A
C1395      C1400   1.403       .  A
C1396      C1397   1.421       .  A
C1396     Br1407   1.933       .  S
C1397      C1398   1.432       .  A
C1397     Br1403   1.927       .  S
C1398      C1399   1.417       .  A
C1399      C1400   1.396       .  A
C1399     Br1408   1.915       .  S
C1400     Br1404   1.935       .  S
C1409      C1410   1.412       .  A
C1409      C1414   1.415       .  A
C1410      C1411   1.413       .  A
C1410     Br1422   1.929       .  S
C1411      C1412   1.411       .  A
C1411     Br1426   1.928       .  S
C1412      C1415   1.495       .  S
C1412      C1413   1.409       .  A
C1413      C1414   1.409       .  A
C1413     Br1421   1.930       .  S
C1414     Br1425   1.934       .  S
C1415      C1416   1.406       .  A
C1415      C1420   1.407       .  A
C1416      C1417   1.415       .  A
C1416     Br1427   1.931       .  S
C1417      C1418   1.425       .  A
C1417     Br1423   1.932       .  S
C1418      C1419   1.423       .  A
C1419      C1420   1.411       .  A
C1419     Br1428   1.935       .  S
C1420     Br1424   1.933       .  S
C1429      C1430   1.417       .  A
C1429      C1434   1.420       .  A
C1430      C1431   1.404       .  A
C1430     Br1442   1.927       .  S
C1431      C1432   1.405       .  A
C1431     Br1446   1.935       .  S
C1432      C1435   1.478       .  S
C1432      C1433   1.405       .  A
C1433      C1434   1.408       .  A
C1433     Br1441   1.931       .  S
C1434     Br1445   1.933       .  S
C1435      C1436   1.407       .  A
C1435      C1440   1.407       .  A
C1436      C1437   1.405       .  A
C1436     Br1447   1.930       .  S
C1437      C1438   1.411       .  A
C1437     Br1443   1.931       .  S
C1438      C1439   1.411       .  A
C1439      C1440   1.405       .  A
C1439     Br1448   1.928       .  S
C1440     Br1444   1.930       .  S
C1449      C1450   1.421       .  A
C1449      C1454   1.419       .  A
C1450      C1451   1.412       .  A
C1450     Br1462   1.932       .  S
C1451      C1452   1.407       .  A
C1451     Br1466   1.931       .  S
C1452      C1455   1.487       .  S
C1452      C1453   1.406       .  A
C1453      C1454   1.407       .  A
C1453     Br1461   1.933       .  S
C1454     Br1465   1.934       .  S
C1455      C1456   1.408       .  A
C1455      C1460   1.408       .  A
C1456      C1457   1.409       .  A
C1456     Br1467   1.930       .  S
C1457      C1458   1.411       .  A
C1457     Br1463   1.922       .  S
C1458      C1459   1.415       .  A
C1459      C1460   1.409       .  A
C1459     Br1468   1.932       .  S
C1460     Br1464   1.930       .  S
C1469      C1470   1.415       .  A
C1469      C1474   1.411       .  A
C1470      C1471   1.408       .  A
C1470     Br1482   1.931       .  S
C1471      C1472   1.408       .  A
C1471     Br1486   1.930       .  S
C1472      C1475   1.483       .  S
C1472      C1473   1.408       .  A
C1473      C1474   1.406       .  A
C1473     Br1481   1.931       .  S
C1474     Br1485   1.927       .  S
C1475      C1476   1.408       .  A
C1475      C1480   1.408       .  A
C1476      C1477   1.407       .  A
C1476     Br1487   1.930       .  S
C1477      C1478   1.413       .  A
C1477     Br1483   1.932       .  S
C1478      C1479   1.414       .  A
C1479      C1480   1.407       .  A
C1479     Br1488   1.932       .  S
C1480     Br1484   1.930       .  S
C1489      C1490   1.414       .  A
C1489      C1494   1.413       .  A
C1490      C1491   1.410       .  A
C1490     Br1502   1.931       .  S
C1491      C1492   1.409       .  A
C1491     Br1506   1.931       .  S
C1492      C1495   1.493       .  S
C1492      C1493   1.411       .  A
C1493      C1494   1.412       .  A
C1493     Br1501   1.929       .  S
C1494     Br1505   1.930       .  S
C1495      C1496   1.408       .  A
C1495      C1500   1.409       .  A
C1496      C1497   1.410       .  A
C1496     Br1507   1.931       .  S
C1497      C1498   1.418       .  A
C1497     Br1503   1.933       .  S
C1498      C1499   1.419       .  A
C1499      C1500   1.413       .  A
C1499     Br1508   1.932       .  S
C1500     Br1504   1.930       .  S
C1509      C1510   1.419       .  A
C1509      C1514   1.423       .  A
C1510      C1511   1.408       .  A
C1510     Br1522   1.918       .  S
C1511      C1512   1.405       .  A
C1511     Br1526   1.935       .  S
C1512      C1515   1.486       .  S
C1512      C1513   1.403       .  A
C1513      C1514   1.411       .  A
C1513     Br1521   1.934       .  S
C1514     Br1525   1.915       .  S
C1515      C1516   1.405       .  A
C1515      C1520   1.405       .  A
C1516      C1517   1.408       .  A
C1516     Br1527   1.936       .  S
C1517      C1518   1.421       .  A
C1517     Br1523   1.923       .  S
C1518      C1519   1.423       .  A
C1519      C1520   1.409       .  A
C1519     Br1528   1.936       .  S
C1520     Br1524   1.930       .  S
C1529      C1530   1.419       .  A
C1529      C1534   1.421       .  A
C1530      C1531   1.409       .  A
C1530     Br1542   1.925       .  S
C1531      C1532   1.407       .  A
C1531     Br1546   1.934       .  S
C1532      C1535   1.489       .  S
C1532      C1533   1.408       .  A
C1533      C1534   1.407       .  A
C1533     Br1541   1.932       .  S
C1534     Br1545   1.936       .  S
C1535      C1536   1.412       .  A
C1535      C1540   1.411       .  A
C1536      C1537   1.408       .  A
C1536     Br1547   1.930       .  S
C1537      C1538   1.408       .  A
C1537     Br1543   1.928       .  S
C1538      C1539   1.409       .  A
C1539      C1540   1.408       .  A
C1539     Br1548   1.927       .  S
C1540     Br1544   1.931       .  S
C1549      C1550   1.419       .  A
C1549      C1554   1.417       .  A
C1550      C1551   1.411       .  A
C1550     Br1562   1.922       .  S
C1551      C1552   1.407       .  A
C1551     Br1566   1.932       .  S
C1552      C1555   1.486       .  S
C1552      C1553   1.405       .  A
C1553      C1554   1.403       .  A
C1553     Br1561   1.934       .  S
C1554     Br1565   1.923       .  S
C1555      C1556   1.406       .  A
C1555      C1560   1.405       .  A
C1556      C1557   1.409       .  A
C1556     Br1567   1.934       .  S
C1557      C1558   1.423       .  A
C1557     Br1563   1.924       .  S
C1558      C1559   1.423       .  A
C1559      C1560   1.404       .  A
C1559     Br1568   1.935       .  S
C1560     Br1564   1.930       .  S
C1569      C1570   1.417       .  A
C1569      C1574   1.417       .  A
C1570      C1571   1.409       .  A
C1570     Br1582   1.922       .  S
C1571      C1572   1.406       .  A
C1571     Br1586   1.931       .  S
C1572      C1575   1.482       .  S
C1572      C1573   1.405       .  A
C1573      C1574   1.404       .  A
C1573     Br1581   1.933       .  S
C1574     Br1585   1.931       .  S
C1575      C1576   1.405       .  A
C1575      C1580   1.401       .  A
C1576      C1577   1.411       .  A
C1576     Br1587   1.935       .  S
C1577      C1578   1.426       .  A
C1577     Br1583   1.929       .  S
C1578      C1579   1.419       .  A
C1579      C1580   1.405       .  A
C1579     Br1588   1.922       .  S
C1580     Br1584   1.931       .  S
C1589      C1590   1.421       .  A
C1589      C1594   1.432       .  A
C1590      C1591   1.399       .  A
C1590     Br1602   1.919       .  S
C1591      C1592   1.400       .  A
C1591     Br1606   1.936       .  S
C1592      C1595   1.480       .  S
C1592      C1593   1.404       .  A
C1593      C1594   1.413       .  A
C1593     Br1601   1.933       .  S
C1594     Br1605   1.934       .  S
C1595      C1596   1.407       .  A
C1595      C1600   1.411       .  A
C1596      C1597   1.407       .  A
C1596     Br1607   1.928       .  S
C1597      C1598   1.410       .  A
C1597     Br1603   1.930       .  S
C1598      C1599   1.409       .  A
C1599      C1600   1.403       .  A
C1599     Br1608   1.932       .  S
C1600     Br1604   1.933       .  S
C1609      C1610   1.421       .  A
C1609      C1614   1.424       .  A
C1610      C1611   1.411       .  A
C1610     Br1622   1.933       .  S
C1611      C1612   1.407       .  A
C1611     Br1626   1.931       .  S
C1612      C1615   1.490       .  S
C1612      C1613   1.406       .  A
C1613      C1614   1.409       .  A
C1613     Br1621   1.934       .  S
C1614     Br1625   1.935       .  S
C1615      C1616   1.407       .  A
C1615      C1620   1.405       .  A
C1616      C1617   1.412       .  A
C1616     Br1627   1.930       .  S
C1617      C1618   1.419       .  A
C1617     Br1623   1.929       .  S
C1618      C1619   1.418       .  A
C1619      C1620   1.407       .  A
C1619     Br1628   1.916       .  S
C1620     Br1624   1.935       .  S
C1629      C1630   1.414       .  A
C1629      C1634   1.416       .  A
C1630      C1631   1.409       .  A
C1630     Br1642   1.923       .  S
C1631      C1632   1.407       .  A
C1631     Br1646   1.930       .  S
C1632      C1635   1.482       .  S
C1632      C1633   1.404       .  A
C1633      C1634   1.405       .  A
C1633     Br1641   1.931       .  S
C1634     Br1645   1.924       .  S
C1635      C1636   1.409       .  A
C1635      C1640   1.408       .  A
C1636      C1637   1.404       .  A
C1636     Br1647   1.932       .  S
C1637      C1638   1.408       .  A
C1637     Br1643   1.929       .  S
C1638      C1639   1.413       .  A
C1639      C1640   1.410       .  A
C1639     Br1648   1.929       .  S
C1640     Br1644   1.928       .  S
C1649      C1650   1.424       .  A
C1649      C1654   1.432       .  A
C1650      C1651   1.409       .  A
C1650     Br1662   1.928       .  S
C1651      C1652   1.405       .  A
C1651     Br1666   1.932       .  S
C1652      C1655   1.486       .  S
C1652      C1653   1.403       .  A
C1653      C1654   1.408       .  A
C1653     Br1661   1.938       .  S
C1654     Br1665   1.934       .  S
C1655      C1656   1.409       .  A
C1655      C1660   1.410       .  A
C1656      C1657   1.405       .  A
C1656     Br1667   1.933       .  S
C1657      C1658   1.413       .  A
C1657     Br1663   1.933       .  S
C1658      C1659   1.413       .  A
C1659      C1660   1.409       .  A
C1659     Br1668   1.930       .  S
C1660     Br1664   1.930       .  S
C1669      C1670   1.423       .  A
C1669      C1674   1.423       .  A
C1670      C1671   1.407       .  A
C1670     Br1682   1.936       .  S
C1671      C1672   1.404       .  A
C1671     Br1686   1.934       .  S
C1672      C1675   1.482       .  S
C1672      C1673   1.404       .  A
C1673      C1674   1.408       .  A
C1673     Br1681   1.932       .  S
C1674     Br1685   1.934       .  S
C1675      C1676   1.404       .  A
C1675      C1680   1.404       .  A
C1676      C1677   1.409       .  A
C1676     Br1687   1.935       .  S
C1677      C1678   1.424       .  A
C1677     Br1683   1.926       .  S
C1678      C1679   1.421       .  A
C1679      C1680   1.406       .  A
C1679     Br1688   1.936       .  S
C1680     Br1684   1.931       .  S
C1689      C1690   1.414       .  A
C1689      C1694   1.412       .  A
C1690      C1691   1.410       .  A
C1690     Br1702   1.931       .  S
C1691      C1692   1.409       .  A
C1691     Br1706   1.930       .  S
C1692      C1695   1.493       .  S
C1692      C1693   1.410       .  A
C1693      C1694   1.411       .  A
C1693     Br1701   1.929       .  S
C1694     Br1705   1.926   1_455  S
C1695      C1696   1.405       .  A
C1695      C1700   1.405       .  A
C1696      C1697   1.413       .  A
C1696     Br1707   1.933       .  S
C1697      C1698   1.429       .  A
C1697     Br1703   1.935       .  S
C1698      C1699   1.429       .  A
C1699      C1700   1.412       .  A
C1699     Br1708   1.936       .  S
C1700     Br1704   1.934       .  S
C1709      C1710   1.414       .  A
C1709      C1714   1.416       .  A
C1710      C1711   1.408       .  A
C1710     Br1722   1.932   1_455  S
C1711      C1712   1.409       .  A
C1711     Br1726   1.931       .  S
C1712      C1715   1.486       .  S
C1712      C1713   1.408       .  A
C1713      C1714   1.408       .  A
C1713     Br1721   1.931       .  S
C1714     Br1725   1.933       .  S
C1715      C1716   1.408       .  A
C1715      C1720   1.408       .  A
C1716      C1717   1.409       .  A
C1716     Br1727   1.931       .  S
C1717      C1718   1.413       .  A
C1717     Br1723   1.923       .  S
C1718      C1719   1.418       .  A
C1719      C1720   1.407       .  A
C1719     Br1728   1.935       .  S
C1720     Br1724   1.932       .  S
C1729      C1730   1.413       .  A
C1729      C1734   1.412       .  A
C1730      C1731   1.411       .  A
C1730     Br1742   1.930       .  S
C1731      C1732   1.410       .  A
C1731     Br1746   1.929       .  S
C1732      C1735   1.489       .  S
C1732      C1733   1.408       .  A
C1733      C1734   1.409       .  A
C1733     Br1741   1.930       .  S
C1734     Br1745   1.925       .  S
C1735      C1736   1.407       .  A
C1735      C1740   1.403       .  A
C1736      C1737   1.413       .  A
C1736     Br1747   1.929       .  S
C1737      C1738   1.424       .  A
C1737     Br1743   1.931       .  S
C1738      C1739   1.425       .  A
C1739      C1740   1.407       .  A
C1739     Br1748   1.928       .  S
C1740     Br1744   1.933       .  S
C1749      C1750   1.429       .  A
C1749      C1754   1.428       .  A
C1750      C1751   1.408       .  A
C1750     Br1762   1.938       .  S
C1751      C1752   1.403       .  A
C1751     Br1766   1.936       .  S
C1752      C1755   1.484       .  S
C1752      C1753   1.403       .  A
C1753      C1754   1.410       .  A
C1753     Br1761   1.934       .  S
C1754     Br1765   1.936       .  S
C1755      C1756   1.404       .  A
C1755      C1760   1.404       .  A
C1756      C1757   1.408       .  A
C1756     Br1767   1.931       .  S
C1757      C1758   1.418       .  A
C1757     Br1763   1.922       .  S
C1758      C1759   1.422       .  A
C1759      C1760   1.408       .  A
C1759     Br1768   1.922       .  S
C1760     Br1764   1.934       .  S
C1769      C1770   1.417       .  A
C1769      C1774   1.414       .  A
C1770      C1771   1.410       .  A
C1770     Br1782   1.932       .  S
C1771      C1772   1.407       .  A
C1771     Br1786   1.930       .  S
C1772      C1775   1.484       .  S
C1772      C1773   1.406       .  A
C1773      C1774   1.406       .  A
C1773     Br1781   1.932       .  S
C1774     Br1785   1.926       .  S
C1775      C1776   1.407       .  A
C1775      C1780   1.408       .  A
C1776      C1777   1.408       .  A
C1776     Br1787   1.930       .  S
C1777      C1778   1.416       .  A
C1777     Br1783   1.932       .  S
C1778      C1779   1.412       .  A
C1779      C1780   1.407       .  A
C1779     Br1788   1.929       .  S
C1780     Br1784   1.931       .  S
C1789      C1790   1.412       .  A
C1789      C1794   1.409       .  A
C1790      C1791   1.408       .  A
C1790     Br1802   1.931       .  S
C1791      C1792   1.409       .  A
C1791     Br1806   1.929       .  S
C1792      C1795   1.487       .  S
C1792      C1793   1.410       .  A
C1793      C1794   1.409       .  A
C1793     Br1801   1.929       .  S
C1794     Br1805   1.929       .  S
C1795      C1796   1.403       .  A
C1795      C1800   1.404       .  A
C1796      C1797   1.410       .  A
C1796     Br1807   1.934       .  S
C1797      C1798   1.428       .  A
C1797     Br1803   1.935       .  S
C1798      C1799   1.427       .  A
C1799      C1800   1.411       .  A
C1799     Br1808   1.934       .  S
C1800     Br1804   1.934       .  S
C1809      C1810   1.418       .  A
C1809      C1814   1.416       .  A
C1810      C1811   1.409       .  A
C1810     Br1822   1.933       .  S
C1811      C1812   1.406       .  A
C1811     Br1826   1.930       .  S
C1812      C1815   1.488       .  S
C1812      C1813   1.409       .  A
C1813      C1814   1.410       .  A
C1813     Br1821   1.931       .  S
C1814     Br1825   1.931       .  S
C1815      C1816   1.409       .  A
C1815      C1820   1.409       .  A
C1816      C1817   1.409       .  A
C1816     Br1827   1.930       .  S
C1817      C1818   1.414       .  A
C1817     Br1823   1.929       .  S
C1818      C1819   1.414       .  A
C1819      C1820   1.408       .  A
C1819     Br1828   1.932       .  S
C1820     Br1824   1.929       .  S
C1829      C1830   1.429       .  A
C1829      C1834   1.421       .  A
C1830      C1831   1.414       .  A
C1830     Br1842   1.936       .  S
C1831      C1832   1.406       .  A
C1831     Br1846   1.932       .  S
C1832      C1835   1.490       .  S
C1832      C1833   1.403       .  A
C1833      C1834   1.406       .  A
C1833     Br1841   1.934       .  S
C1834     Br1845   1.917       .  S
C1835      C1836   1.408       .  A
C1835      C1840   1.406       .  A
C1836      C1837   1.409       .  A
C1836     Br1847   1.933       .  S
C1837      C1838   1.419       .  A
C1837     Br1843   1.933       .  S
C1838      C1839   1.422       .  A
C1839      C1840   1.411       .  A
C1839     Br1848   1.933       .  S
C1840     Br1844   1.931       .  S
C1849      C1850   1.411       .  A
C1849      C1854   1.411       .  A
C1850      C1851   1.408       .  A
C1850     Br1862   1.931       .  S
C1851      C1852   1.409       .  A
C1851     Br1866   1.929       .  S
C1852      C1855   1.484       .  S
C1852      C1853   1.409       .  A
C1853      C1854   1.407       .  A
C1853     Br1861   1.930       .  S
C1854     Br1865   1.931       .  S
C1855      C1856   1.408       .  A
C1855      C1860   1.406       .  A
C1856      C1857   1.410       .  A
C1856     Br1867   1.930       .  S
C1857      C1858   1.417       .  A
C1857     Br1863   1.931       .  S
C1858      C1859   1.417       .  A
C1859      C1860   1.406       .  A
C1859     Br1868   1.934       .  S
C1860     Br1864   1.931       .  S
C1869      C1870   1.408       .  A
C1869      C1874   1.406       .  A
C1870      C1871   1.404       .  A
C1870     Br1882   1.925       .  S
C1871      C1872   1.408       .  A
C1871     Br1886   1.931       .  S
C1872      C1875   1.475       .  S
C1872      C1873   1.407       .  A
C1873      C1874   1.403       .  A
C1873     Br1881   1.929       .  S
C1874     Br1885   1.925       .  S
C1875      C1876   1.400       .  A
C1875      C1880   1.403       .  A
C1876      C1877   1.403       .  A
C1876     Br1887   1.936       .  S
C1877      C1878   1.420       .  A
C1877     Br1883   1.917       .  S
C1878      C1879   1.421       .  A
C1879      C1880   1.408       .  A
C1879     Br1888   1.923       .  S
C1880     Br1884   1.933       .  S
C1889      C1890   1.418       .  A
C1889      C1894   1.418       .  A
C1890      C1891   1.409       .  A
C1890     Br1902   1.934       .  S
C1891      C1892   1.406       .  A
C1891     Br1906   1.931       .  S
C1892      C1895   1.488       .  S
C1892      C1893   1.409       .  A
C1893      C1894   1.411       .  A
C1893     Br1901   1.931       .  S
C1894     Br1905   1.930       .  S
C1895      C1896   1.409       .  A
C1895      C1900   1.409       .  A
C1896      C1897   1.408       .  A
C1896     Br1907   1.929       .  S
C1897      C1898   1.411       .  A
C1897     Br1903   1.931       .  S
C1898      C1899   1.415       .  A
C1899      C1900   1.409       .  A
C1899     Br1908   1.934       .  S
C1900     Br1904   1.929       .  S
C1909      C1910   1.430       .  A
C1909      C1914   1.427       .  A
C1910      C1911   1.408       .  A
C1910     Br1922   1.938       .  S
C1911      C1912   1.403       .  A
C1911     Br1926   1.932       .  S
C1912      C1915   1.491       .  S
C1912      C1913   1.405       .  A
C1913      C1914   1.414       .  A
C1913     Br1921   1.935       .  S
C1914     Br1925   1.923       .  S
C1915      C1916   1.411       .  A
C1915      C1920   1.411       .  A
C1916      C1917   1.410       .  A
C1916     Br1927   1.929       .  S
C1917      C1918   1.409       .  A
C1917     Br1923   1.929       .  S
C1918      C1919   1.413       .  A
C1919      C1920   1.409       .  A
C1919     Br1928   1.932       .  S
C1920     Br1924   1.931       .  S
C1929      C1930   1.422       .  A
C1929      C1934   1.421       .  A
C1930      C1931   1.410       .  A
C1930     Br1942   1.934       .  S
C1931      C1932   1.406       .  A
C1931     Br1946   1.932       .  S
C1932      C1935   1.489       .  S
C1932      C1933   1.407       .  A
C1933      C1934   1.410       .  A
C1933     Br1941   1.932       .  S
C1934     Br1945   1.933       .  S
C1935      C1936   1.410       .  A
C1935      C1940   1.410       .  A
C1936      C1937   1.409       .  A
C1936     Br1947   1.930       .  S
C1937      C1938   1.411       .  A
C1937     Br1943   1.930       .  S
C1938      C1939   1.410       .  A
C1939      C1940   1.409       .  A
C1939     Br1948   1.929       .  S
C1940     Br1944   1.929       .  S
C1949      C1950   1.411       .  A
C1949      C1954   1.409       .  A
C1950      C1951   1.402       .  A
C1950     Br1962   1.932       .  S
C1951      C1952   1.406       .  A
C1951     Br1966   1.931       .  S
C1952      C1955   1.472       .  S
C1952      C1953   1.408       .  A
C1953      C1954   1.403       .  A
C1953     Br1961   1.931       .  S
C1954     Br1965   1.931   1_455  S
C1955      C1956   1.406       .  A
C1955      C1960   1.408       .  A
C1956      C1957   1.403       .  A
C1956     Br1967   1.930       .  S
C1957      C1958   1.412       .  A
C1957     Br1963   1.933       .  S
C1958      C1959   1.409       .  A
C1959      C1960   1.402       .  A
C1959     Br1968   1.932       .  S
C1960     Br1964   1.931       .  S
C1969      C1970   1.414       .  A
C1969      C1974   1.412       .  A
C1970      C1971   1.410       .  A
C1970     Br1982   1.931       .  S
C1971      C1972   1.409       .  A
C1971     Br1986   1.929       .  S
C1972      C1975   1.490       .  S
C1972      C1973   1.409       .  A
C1973      C1974   1.409       .  A
C1973     Br1981   1.930       .  S
C1974     Br1985   1.931       .  S
C1975      C1976   1.408       .  A
C1975      C1980   1.408       .  A
C1976      C1977   1.410       .  A
C1976     Br1987   1.931       .  S
C1977      C1978   1.417       .  A
C1977     Br1983   1.932       .  S
C1978      C1979   1.418       .  A
C1979      C1980   1.411       .  A
C1979     Br1988   1.932       .  S
C1980     Br1984   1.930       .  S
C1989      C1990   1.434       .  A
C1989      C1994   1.429       .  A
C1990      C1991   1.408       .  A
C1990     Br2002   1.941       .  S
C1991      C1992   1.401       .  A
C1991     Br2006   1.935       .  S
C1992      C1995   1.482       .  S
C1992      C1993   1.401       .  A
C1993      C1994   1.409       .  A
C1993     Br2001   1.936       .  S
C1994     Br2005   1.923       .  S
C1995      C1996   1.408       .  A
C1995      C2000   1.410       .  A
C1996      C1997   1.408       .  A
C1996     Br2007   1.928       .  S
C1997      C1998   1.410       .  A
C1997     Br2003   1.929       .  S
C1998      C1999   1.408       .  A
C1999      C2000   1.404       .  A
C1999     Br2008   1.932       .  S
C2000     Br2004   1.932       .  S
C2009      C2010   1.426       .  A
C2009      C2014   1.419       .  A
C2010      C2011   1.413       .  A
C2010     Br2022   1.924       .  S
C2011      C2012   1.406       .  A
C2011     Br2026   1.935       .  S
C2012      C2015   1.489       .  S
C2012      C2013   1.404       .  A
C2013      C2014   1.406       .  A
C2013     Br2021   1.933       .  S
C2014     Br2025   1.921       .  S
C2015      C2016   1.409       .  A
C2015      C2020   1.406       .  A
C2016      C2017   1.410       .  A
C2016     Br2027   1.932       .  S
C2017      C2018   1.417       .  A
C2017     Br2023   1.931       .  S
C2018      C2019   1.421       .  A
C2019      C2020   1.408       .  A
C2019     Br2028   1.936       .  S
C2020     Br2024   1.933       .  S
C2029      C2030   1.425       .  A
C2029      C2034   1.420       .  A
C2030      C2031   1.410       .  A
C2030     Br2042   1.922       .  S
C2031      C2032   1.406       .  A
C2031     Br2046   1.934       .  S
C2032      C2035   1.483       .  S
C2032      C2033   1.404       .  A
C2033      C2034   1.400       .  A
C2033     Br2041   1.931       .  S
C2034     Br2045   1.929       .  S
C2035      C2036   1.409       .  A
C2035      C2040   1.408       .  A
C2036      C2037   1.405       .  A
C2036     Br2047   1.933       .  S
C2037      C2038   1.414       .  A
C2037     Br2043   1.934       .  S
C2038      C2039   1.414       .  A
C2039      C2040   1.407       .  A
C2039     Br2048   1.922       .  S
C2040     Br2044   1.934       .  S
C2049      C2050   1.416       .  A
C2049      C2054   1.415       .  A
C2050      C2051   1.409       .  A
C2050     Br2062   1.932       .  S
C2051      C2052   1.408       .  A
C2051     Br2066   1.930       .  S
C2052      C2055   1.487       .  S
C2052      C2053   1.409       .  A
C2053      C2054   1.408       .  A
C2053     Br2061   1.931       .  S
C2054     Br2065   1.933       .  S
C2055      C2056   1.406       .  A
C2055      C2060   1.408       .  A
C2056      C2057   1.406       .  A
C2056     Br2067   1.932       .  S
C2057      C2058   1.419       .  A
C2057     Br2063   1.936       .  S
C2058      C2059   1.416       .  A
C2059      C2060   1.412       .  A
C2059     Br2068   1.925       .  S
C2060     Br2064   1.930       .  S
C2069      C2070   1.419       .  A
C2069      C2074   1.411       .  A
C2070      C2071   1.404       .  A
C2070     Br2082   1.934       .  S
C2071      C2072   1.405       .  A
C2071     Br2086   1.933       .  S
C2072      C2075   1.483       .  S
C2072      C2073   1.409       .  A
C2073      C2074   1.410       .  A
C2073     Br2081   1.929       .  S
C2074     Br2085   1.924       .  S
C2075      C2076   1.407       .  A
C2075      C2080   1.409       .  A
C2076      C2077   1.405       .  A
C2076     Br2087   1.931       .  S
C2077      C2078   1.413       .  A
C2077     Br2083   1.933       .  S
C2078      C2079   1.413       .  A
C2079      C2080   1.409       .  A
C2079     Br2088   1.930       .  S
C2080     Br2084   1.930       .  S
C2089      C2090   1.423       .  A
C2089      C2094   1.420       .  A
C2090      C2091   1.407       .  A
C2090     Br2102   1.935       .  S
C2091      C2092   1.405       .  A
C2091     Br2106   1.931       .  S
C2092      C2095   1.482       .  S
C2092      C2093   1.406       .  A
C2093      C2094   1.407       .  A
C2093     Br2101   1.930       .  S
C2094     Br2105   1.934       .  S
C2095      C2096   1.405       .  A
C2095      C2100   1.406       .  A
C2096      C2097   1.408       .  A
C2096     Br2107   1.932       .  S
C2097      C2098   1.420       .  A
C2097     Br2103   1.935       .  S
C2098      C2099   1.418       .  A
C2099      C2100   1.407       .  A
C2099     Br2108   1.929       .  S
C2100     Br2104   1.932       .  S
C2109      C2110   1.421       .  A
C2109      C2114   1.425       .  A
C2110      C2111   1.408       .  A
C2110     Br2122   1.930       .  S
C2111      C2112   1.405       .  A
C2111     Br2126   1.933       .  S
C2112      C2115   1.485       .  S
C2112      C2113   1.405       .  A
C2113      C2114   1.410       .  A
C2113     Br2121   1.933       .  S
C2114     Br2125   1.933       .  S
C2115      C2116   1.404       .  A
C2115      C2120   1.404       .  A
C2116      C2117   1.407       .  A
C2116     Br2127   1.933       .  S
C2117      C2118   1.424       .  A
C2117     Br2123   1.930       .  S
C2118      C2119   1.427       .  A
C2119      C2120   1.409       .  A
C2119     Br2128   1.933       .  S
C2120     Br2124   1.932       .  S
C2129      C2130   1.426       .  A
C2129      C2134   1.431       .  A
C2130      C2131   1.411       .  A
C2130     Br2142   1.933       .  S
C2131      C2132   1.403       .  A
C2131     Br2146   1.932       .  S
C2132      C2135   1.493       .  S
C2132      C2133   1.404       .  A
C2133      C2134   1.414       .  A
C2133     Br2141   1.936       .  S
C2134     Br2145   1.930       .  S
C2135      C2136   1.406       .  A
C2135      C2140   1.406       .  A
C2136      C2137   1.412       .  A
C2136     Br2147   1.933       .  S
C2137      C2138   1.424       .  A
C2137     Br2143   1.930       .  S
C2138      C2139   1.424       .  A
C2139      C2140   1.412       .  A
C2139     Br2148   1.934       .  S
C2140     Br2144   1.932       .  S
C2149      C2150   1.426       .  A
C2149      C2154   1.424       .  A
C2150      C2151   1.414       .  A
C2150     Br2162   1.927       .  S
C2151      C2152   1.407       .  A
C2151     Br2166   1.932       .  S
C2152      C2155   1.490       .  S
C2152      C2153   1.407       .  A
C2153      C2154   1.402       .  A
C2153     Br2161   1.938       .  S
C2154     Br2165   1.935       .  S
C2155      C2156   1.411       .  A
C2155      C2160   1.412       .  A
C2156      C2157   1.404       .  A
C2156     Br2167   1.932       .  S
C2157      C2158   1.413       .  A
C2157     Br2163   1.934       .  S
C2158      C2159   1.407       .  A
C2159      C2160   1.409       .  A
C2159     Br2168   1.923       .  S
C2160     Br2164   1.930       .  S
C2169      C2170   1.428       .  A
C2169      C2174   1.429       .  A
C2170      C2171   1.413       .  A
C2170     Br2182   1.934       .  S
C2171      C2172   1.404       .  A
C2171     Br2186   1.933       .  S
C2172      C2175   1.490       .  S
C2172      C2173   1.403       .  A
C2173      C2174   1.410       .  A
C2173     Br2181   1.936       .  S
C2174     Br2185   1.936       .  S
C2175      C2176   1.404       .  A
C2175      C2180   1.407       .  A
C2176      C2177   1.407       .  A
C2176     Br2187   1.934       .  S
C2177      C2178   1.419       .  A
C2177     Br2183   1.922       .  S
C2178      C2179   1.424       .  A
C2179      C2180   1.413       .  A
C2179     Br2188   1.935       .  S
C2180     Br2184   1.930       .  S
C2189      C2190   1.413       .  A
C2189      C2194   1.414       .  A
C2190      C2191   1.413       .  A
C2190     Br2202   1.924       .  S
C2191      C2192   1.410       .  A
C2191     Br2206   1.929       .  S
C2192      C2195   1.498       .  S
C2192      C2193   1.410       .  A
C2193      C2194   1.412       .  A
C2193     Br2201   1.929       .  S
C2194     Br2205   1.931       .  S
C2195      C2196   1.406       .  A
C2195      C2200   1.408       .  A
C2196      C2197   1.412       .  A
C2196     Br2207   1.933       .  S
C2197      C2198   1.426       .  A
C2197     Br2203   1.935       .  S
C2198      C2199   1.426       .  A
C2199      C2200   1.416       .  A
C2199     Br2208   1.933       .  S
C2200     Br2204   1.932       .  S
C2209      C2210   1.415       .  A
C2209      C2214   1.412       .  A
C2210      C2211   1.411       .  A
C2210     Br2222   1.931       .  S
C2211      C2212   1.408       .  A
C2211     Br2226   1.929       .  S
C2212      C2215   1.484       .  S
C2212      C2213   1.407       .  A
C2213      C2214   1.405       .  A
C2213     Br2221   1.933       .  S
C2214     Br2225   1.923       .  S
C2215      C2216   1.402       .  A
C2215      C2220   1.406       .  A
C2216      C2217   1.403       .  A
C2216     Br2227   1.935       .  S
C2217      C2218   1.419       .  A
C2217     Br2223   1.911       .  S
C2218      C2219   1.425       .  A
C2219      C2220   1.413       .  A
C2219     Br2228   1.933       .  S
C2220     Br2224   1.929       .  S
C2229      C2230   1.424       .  A
C2229      C2234   1.426       .  A
C2230      C2231   1.411       .  A
C2230     Br2242   1.929       .  S
C2231      C2232   1.406       .  A
C2231     Br2246   1.931       .  S
C2232      C2235   1.491       .  S
C2232      C2233   1.405       .  A
C2233      C2234   1.411       .  A
C2233     Br2241   1.931       .  S
C2234     Br2245   1.934       .  S
C2235      C2236   1.406       .  A
C2235      C2240   1.405       .  A
C2236      C2237   1.412       .  A
C2236     Br2247   1.933       .  S
C2237      C2238   1.424       .  A
C2237     Br2243   1.930       .  S
C2238      C2239   1.423       .  A
C2239      C2240   1.411       .  A
C2239     Br2248   1.934       .  S
C2240     Br2244   1.932       .  S
C2249      C2250   1.417       .  A
C2249      C2254   1.412       .  A
C2250      C2251   1.407       .  A
C2250     Br2262   1.933       .  S
C2251      C2252   1.406       .  A
C2251     Br2266   1.931       .  S
C2252      C2255   1.483       .  S
C2252      C2253   1.408       .  A
C2253      C2254   1.408       .  A
C2253     Br2261   1.931       .  S
C2254     Br2265   1.926       .  S
C2255      C2256   1.409       .  A
C2255      C2260   1.408       .  A
C2256      C2257   1.408       .  A
C2256     Br2267   1.930       .  S
C2257      C2258   1.412       .  A
C2257     Br2263   1.931       .  S
C2258      C2259   1.413       .  A
C2259      C2260   1.406       .  A
C2259     Br2268   1.932       .  S
C2260     Br2264   1.930       .  S
C2269      C2270   1.413       .  A
C2269      C2274   1.415       .  A
C2270      C2271   1.409       .  A
C2270     Br2282   1.931       .  S
C2271      C2272   1.409       .  A
C2271     Br2286   1.930       .  S
C2272      C2275   1.485       .  S
C2272      C2273   1.408       .  A
C2273      C2274   1.406       .  A
C2273     Br2281   1.931       .  S
C2274     Br2285   1.933       .  S
C2275      C2276   1.409       .  A
C2275      C2280   1.408       .  A
C2276      C2277   1.407       .  A
C2276     Br2287   1.930       .  S
C2277      C2278   1.411       .  A
C2277     Br2283   1.929       .  S
C2278      C2279   1.415       .  A
C2279      C2280   1.408       .  A
C2279     Br2288   1.932       .  S
C2280     Br2284   1.931       .  S
C2289      C2290   1.412       .  A
C2289      C2294   1.411       .  A
C2290      C2291   1.406       .  A
C2290     Br2302   1.931       .  S
C2291      C2292   1.409       .  A
C2291     Br2306   1.931       .  S
C2292      C2295   1.485       .  S
C2292      C2293   1.409       .  A
C2293      C2294   1.408       .  A
C2293     Br2301   1.929       .  S
C2294     Br2305   1.931       .  S
C2295      C2296   1.405       .  A
C2295      C2300   1.403       .  A
C2296      C2297   1.411       .  A
C2296     Br2307   1.933       .  S
C2297      C2298   1.424       .  A
C2297     Br2303   1.931       .  S
C2298      C2299   1.427       .  A
C2299      C2300   1.408       .  A
C2299     Br2308   1.935       .  S
C2300     Br2304   1.935       .  S
C2309      C2310   1.413       .  A
C2309      C2314   1.413       .  A
C2310      C2311   1.412       .  A
C2310     Br2322   1.931       .  S
C2311      C2312   1.411       .  A
C2311     Br2326   1.929       .  S
C2312      C2315   1.493       .  S
C2312      C2313   1.409       .  A
C2313      C2314   1.408       .  A
C2313     Br2321   1.929       .  S
C2314     Br2325   1.931       .  S
C2315      C2316   1.411       .  A
C2315      C2320   1.408       .  A
C2316      C2317   1.411       .  A
C2316     Br2327   1.930       .  S
C2317      C2318   1.413       .  A
C2317     Br2323   1.931       .  S
C2318      C2319   1.414       .  A
C2319      C2320   1.411       .  A
C2319     Br2328   1.923       .  S
C2320     Br2324   1.930       .  S
C2329      C2330   1.422       .  A
C2329      C2334   1.428       .  A
C2330      C2331   1.409       .  A
C2330     Br2342   1.934       .  S
C2331      C2332   1.404       .  A
C2331     Br2346   1.931       .  S
C2332      C2335   1.478       .  S
C2332      C2333   1.401       .  A
C2333      C2334   1.404       .  A
C2333     Br2341   1.937       .  S
C2334     Br2345   1.939       .  S
C2335      C2336   1.408       .  A
C2335      C2340   1.408       .  A
C2336      C2337   1.407       .  A
C2336     Br2347   1.929       .  S
C2337      C2338   1.411       .  A
C2337     Br2343   1.931       .  S
C2338      C2339   1.408       .  A
C2339      C2340   1.403       .  A
C2339     Br2348   1.930       .  S
C2340     Br2344   1.931       .  S
C2349      C2350   1.415       .  A
C2349      C2354   1.414       .  A
C2350      C2351   1.408       .  A
C2350     Br2362   1.933       .  S
C2351      C2352   1.409       .  A
C2351     Br2366   1.930       .  S
C2352      C2355   1.490       .  S
C2352      C2353   1.409       .  A
C2353      C2354   1.411       .  A
C2353     Br2361   1.929       .  S
C2354     Br2365   1.930       .  S
C2355      C2356   1.407       .  A
C2355      C2360   1.405       .  A
C2356      C2357   1.412       .  A
C2356     Br2367   1.930       .  S
C2357      C2358   1.423       .  A
C2357     Br2363   1.934       .  S
C2358      C2359   1.425       .  A
C2359      C2360   1.409       .  A
C2359     Br2368   1.936       .  S
C2360     Br2364   1.931       .  S
C2369      C2370   1.424       .  A
C2369      C2374   1.421       .  A
C2370      C2371   1.408       .  A
C2370     Br2382   1.936       .  S
C2371      C2372   1.406       .  A
C2371     Br2386   1.932       .  S
C2372      C2375   1.488       .  S
C2372      C2373   1.407       .  A
C2373      C2374   1.411       .  A
C2373     Br2381   1.929       .  S
C2374     Br2385   1.933       .  S
C2375      C2376   1.409       .  A
C2375      C2380   1.409       .  A
C2376      C2377   1.408       .  A
C2376     Br2387   1.930       .  S
C2377      C2378   1.414       .  A
C2377     Br2383   1.933       .  S
C2378      C2379   1.413       .  A
C2379      C2380   1.409       .  A
C2379     Br2388   1.931       .  S
C2380     Br2384   1.930       .  S
C2389      C2390   1.420       .  A
C2389      C2394   1.419       .  A
C2390      C2391   1.411       .  A
C2390     Br2402   1.933       .  S
C2391      C2392   1.407       .  A
C2391     Br2406   1.932       .  S
C2392      C2395   1.494       .  S
C2392      C2393   1.408       .  A
C2393      C2394   1.413       .  A
C2393     Br2401   1.931       .  S
C2394     Br2405   1.928       .  S
C2395      C2396   1.404       .  A
C2395      C2400   1.404       .  A
C2396      C2397   1.411       .  A
C2396     Br2407   1.932       .  S
C2397      C2398   1.425       .  A
C2397     Br2403   1.929       .  S
C2398      C2399   1.430       .  A
C2399      C2400   1.414       .  A
C2399     Br2408   1.929       .  S
C2400     Br2404   1.935       .  S
C2409      C2410   1.428       .  A
C2409      C2414   1.428       .  A
C2410      C2411   1.411       .  A
C2410     Br2422   1.934       .  S
C2411      C2412   1.403       .  A
C2411     Br2426   1.934       .  S
C2412      C2415   1.487       .  S
C2412      C2413   1.404       .  A
C2413      C2414   1.411       .  A
C2413     Br2421   1.934       .  S
C2414     Br2425   1.935       .  S
C2415      C2416   1.409       .  A
C2415      C2420   1.408       .  A
C2416      C2417   1.411       .  A
C2416     Br2427   1.929       .  S
C2417      C2418   1.414       .  A
C2417     Br2423   1.930       .  S
C2418      C2419   1.410       .  A
C2419      C2420   1.406       .  A
C2419     Br2428   1.923       .  S
C2420     Br2424   1.931       .  S
C2429      C2430   1.410       .  A
C2429      C2434   1.409       .  A
C2430      C2431   1.408       .  A
C2430     Br2442   1.930   1_455  S
C2431      C2432   1.409       .  A
C2431     Br2446   1.929       .  S
C2432      C2435   1.486       .  S
C2432      C2433   1.410       .  A
C2433      C2434   1.408       .  A
C2433     Br2441   1.929       .  S
C2434     Br2445   1.930       .  S
C2435      C2436   1.407       .  A
C2435      C2440   1.405       .  A
C2436      C2437   1.410       .  A
C2436     Br2447   1.931       .  S
C2437      C2438   1.418       .  A
C2437     Br2443   1.931       .  S
C2438      C2439   1.421       .  A
C2439      C2440   1.408       .  A
C2439     Br2448   1.934       .  S
C2440     Br2444   1.932       .  S
C2449      C2450   1.423       .  A
C2449      C2454   1.424       .  A
C2450      C2451   1.409       .  A
C2450     Br2462   1.935       .  S
C2451      C2452   1.406       .  A
C2451     Br2466   1.934       .  S
C2452      C2455   1.490       .  S
C2452      C2453   1.407       .  A
C2453      C2454   1.412       .  A
C2453     Br2461   1.933       .  S
C2454     Br2465   1.931       .  S
C2455      C2456   1.410       .  A
C2455      C2460   1.410       .  A
C2456      C2457   1.409       .  A
C2456     Br2467   1.931       .  S
C2457      C2458   1.413       .  A
C2457     Br2463   1.932       .  S
C2458      C2459   1.413       .  A
C2459      C2460   1.409       .  A
C2459     Br2468   1.929       .  S
C2460     Br2464   1.931       .  S
C2469      C2470   1.426       .  A
C2469      C2474   1.428       .  A
C2470      C2471   1.407       .  A
C2470     Br2482   1.915       .  S
C2471      C2472   1.401       .  A
C2471     Br2486   1.940       .  S
C2472      C2475   1.483       .  S
C2472      C2473   1.399       .  A
C2473      C2474   1.411       .  A
C2473     Br2481   1.933       .  S
C2474     Br2485   1.920       .  S
C2475      C2476   1.402       .  A
C2475      C2480   1.402       .  A
C2476      C2477   1.409       .  A
C2476     Br2487   1.935       .  S
C2477      C2478   1.432       .  A
C2477     Br2483   1.937       .  S
C2478      C2479   1.426       .  A
C2479      C2480   1.407       .  A
C2479     Br2488   1.925       .  S
C2480     Br2484   1.935       .  S
C2489      C2490   1.421       .  A
C2489      C2494   1.421       .  A
C2490      C2491   1.408       .  A
C2490     Br2502   1.933       .  S
C2491      C2492   1.406       .  A
C2491     Br2506   1.930       .  S
C2492      C2495   1.478       .  S
C2492      C2493   1.403       .  A
C2493      C2494   1.403       .  A
C2493     Br2501   1.934       .  S
C2494     Br2505   1.927       .  S
C2495      C2496   1.408       .  A
C2495      C2500   1.406       .  A
C2496      C2497   1.407       .  A
C2496     Br2507   1.930       .  S
C2497      C2498   1.409       .  A
C2497     Br2503   1.922       .  S
C2498      C2499   1.415       .  A
C2499      C2500   1.403       .  A
C2499     Br2508   1.933       .  S
C2500     Br2504   1.933       .  S
C2509      C2510   1.426       .  A
C2509      C2514   1.422       .  A
C2510      C2511   1.404       .  A
C2510     Br2522   1.939       .  S
C2511      C2512   1.402       .  A
C2511     Br2526   1.933       .  S
C2512      C2515   1.480       .  S
C2512      C2513   1.405       .  A
C2513      C2514   1.410       .  A
C2513     Br2521   1.934       .  S
C2514     Br2525   1.926       .  S
C2515      C2516   1.409       .  A
C2515      C2520   1.409       .  A
C2516      C2517   1.405       .  A
C2516     Br2527   1.930       .  S
C2517      C2518   1.408       .  A
C2517     Br2523   1.929       .  S
C2518      C2519   1.408       .  A
C2519      C2520   1.405       .  A
C2519     Br2528   1.928       .  S
C2520     Br2524   1.930       .  S
C2529      C2530   1.423       .  A
C2529      C2534   1.423       .  A
C2530      C2531   1.414       .  A
C2530     Br2542   1.926       .  S
C2531      C2532   1.406       .  A
C2531     Br2546   1.929       .  S
C2532      C2535   1.485       .  S
C2532      C2533   1.402       .  A
C2533      C2534   1.404       .  A
C2533     Br2541   1.934       .  S
C2534     Br2545   1.929       .  S
C2535      C2536   1.403       .  A
C2535      C2540   1.403       .  A
C2536      C2537   1.407       .  A
C2536     Br2547   1.934       .  S
C2537      C2538   1.424       .  A
C2537     Br2543   1.931       .  S
C2538      C2539   1.431       .  A
C2539      C2540   1.413       .  A
C2539     Br2548   1.930       .  S
C2540     Br2544   1.933       .  S
C2549      C2550   1.428       .  A
C2549      C2554   1.423       .  A
C2550      C2551   1.410       .  A
C2550     Br2562   1.938       .  S
C2551      C2552   1.405       .  A
C2551     Br2566   1.932       .  S
C2552      C2555   1.486       .  S
C2552      C2553   1.403       .  A
C2553      C2554   1.406       .  A
C2553     Br2561   1.932       .  S
C2554     Br2565   1.927       .  S
C2555      C2556   1.407       .  A
C2555      C2560   1.408       .  A
C2556      C2557   1.410       .  A
C2556     Br2567   1.931       .  S
C2557      C2558   1.415       .  A
C2557     Br2563   1.925       .  S
C2558      C2559   1.416       .  A
C2559      C2560   1.407       .  A
C2559     Br2568   1.933       .  S
C2560     Br2564   1.932       .  S
C2569      C2570   1.419       .  A
C2569      C2574   1.419       .  A
C2570      C2571   1.406       .  A
C2570     Br2582   1.921       .  S
C2571      C2572   1.403       .  A
C2571     Br2586   1.933       .  S
C2572      C2575   1.486       .  S
C2572      C2573   1.405       .  A
C2573      C2574   1.411       .  A
C2573     Br2581   1.932       .  S
C2574     Br2585   1.919       .  S
C2575      C2576   1.402       .  A
C2575      C2580   1.403       .  A
C2576      C2577   1.409       .  A
C2576     Br2587   1.936       .  S
C2577      C2578   1.430       .  A
C2577     Br2583   1.938       .  S
C2578      C2579   1.431       .  A
C2579      C2580   1.411       .  A
C2579     Br2588   1.937       .  S
C2580     Br2584   1.935       .  S
C2589      C2590   1.423       .  A
C2589      C2594   1.424       .  A
C2590      C2591   1.413       .  A
C2590     Br2602   1.926       .  S
C2591      C2592   1.408       .  A
C2591     Br2606   1.931       .  S
C2592      C2595   1.493       .  S
C2592      C2593   1.403       .  A
C2593      C2594   1.405       .  A
C2593     Br2601   1.937       .  S
C2594     Br2605   1.915       .  S
C2595      C2596   1.408       .  A
C2595      C2600   1.408       .  A
C2596      C2597   1.404       .  A
C2596     Br2607   1.937       .  S
C2597      C2598   1.424       .  A
C2597     Br2603   1.936       .  S
C2598      C2599   1.425       .  A
C2599      C2600   1.414       .  A
C2599     Br2608   1.927       .  S
C2600     Br2604   1.933       .  S
C2609      C2610   1.411       .  A
C2609      C2614   1.414       .  A
C2610      C2611   1.408       .  A
C2610     Br2622   1.921       .  S
C2611      C2612   1.409       .  A
C2611     Br2626   1.932       .  S
C2612      C2615   1.488       .  S
C2612      C2613   1.408       .  A
C2613      C2614   1.409       .  A
C2613     Br2621   1.930       .  S
C2614     Br2625   1.927       .  S
C2615      C2616   1.405       .  A
C2615      C2620   1.407       .  A
C2616      C2617   1.409       .  A
C2616     Br2627   1.932       .  S
C2617      C2618   1.421       .  A
C2617     Br2623   1.934       .  S
C2618      C2619   1.424       .  A
C2619      C2620   1.410       .  A
C2619     Br2628   1.935       .  S
C2620     Br2624   1.934       .  S
C2629      C2630   1.418       .  A
C2629      C2634   1.420       .  A
C2630      C2631   1.410       .  A
C2630     Br2642   1.925       .  S
C2631      C2632   1.407       .  A
C2631     Br2646   1.932       .  S
C2632      C2635   1.485       .  S
C2632      C2633   1.405       .  A
C2633      C2634   1.406       .  A
C2633     Br2641   1.933       .  S
C2634     Br2645   1.929       .  S
C2635      C2636   1.408       .  A
C2635      C2640   1.407       .  A
C2636      C2637   1.408       .  A
C2636     Br2647   1.933       .  S
C2637      C2638   1.418       .  A
C2637     Br2643   1.933       .  S
C2638      C2639   1.418       .  A
C2639      C2640   1.408       .  A
C2639     Br2648   1.933       .  S
C2640     Br2644   1.931       .  S
C2649      C2650   1.416       .  A
C2649      C2654   1.413       .  A
C2650      C2651   1.407       .  A
C2650     Br2662   1.932       .  S
C2651      C2652   1.406       .  A
C2651     Br2666   1.930       .  S
C2652      C2655   1.483       .  S
C2652      C2653   1.409       .  A
C2653      C2654   1.407       .  A
C2653     Br2661   1.931       .  S
C2654     Br2665   1.932       .  S
C2655      C2656   1.404       .  A
C2655      C2660   1.400       .  A
C2656      C2657   1.411       .  A
C2656     Br2667   1.932       .  S
C2657      C2658   1.429       .  A
C2657     Br2663   1.931       .  S
C2658      C2659   1.422       .  A
C2659      C2660   1.404       .  A
C2659     Br2668   1.913       .  S
C2660     Br2664   1.934       .  S
C2669      C2670   1.412       .  A
C2669      C2674   1.413       .  A
C2670      C2671   1.408       .  A
C2670     Br2682   1.930       .  S
C2671      C2672   1.409       .  A
C2671     Br2686   1.930       .  S
C2672      C2675   1.486       .  S
C2672      C2673   1.409       .  A
C2673      C2674   1.407       .  A
C2673     Br2681   1.931       .  S
C2674     Br2685   1.933       .  S
C2675      C2676   1.408       .  A
C2675      C2680   1.409       .  A
C2676      C2677   1.406       .  A
C2676     Br2687   1.931       .  S
C2677      C2678   1.413       .  A
C2677     Br2683   1.933       .  S
C2678      C2679   1.412       .  A
C2679      C2680   1.409       .  A
C2679     Br2688   1.926       .  S
C2680     Br2684   1.930       .  S
C2689      C2690   1.426       .  A
C2689      C2694   1.428       .  A
C2690      C2691   1.410       .  A
C2690     Br2702   1.933       .  S
C2691      C2692   1.404       .  A
C2691     Br2706   1.933       .  S
C2692      C2695   1.486       .  S
C2692      C2693   1.404       .  A
C2693      C2694   1.410       .  A
C2693     Br2701   1.936       .  S
C2694     Br2705   1.936       .  S
C2695      C2696   1.406       .  A
C2695      C2700   1.403       .  A
C2696      C2697   1.412       .  A
C2696     Br2707   1.932       .  S
C2697      C2698   1.423       .  A
C2697     Br2703   1.928       .  S
C2698      C2699   1.424       .  A
C2699      C2700   1.405       .  A
C2699     Br2708   1.939       .  S
C2700     Br2704   1.932       .  S
C2709      C2710   1.422       .  A
C2709      C2714   1.428       .  A
C2710      C2711   1.407       .  A
C2710     Br2722   1.921       .  S
C2711      C2712   1.404       .  A
C2711     Br2726   1.935       .  S
C2712      C2715   1.484       .  S
C2712      C2713   1.403       .  A
C2713      C2714   1.409       .  A
C2713     Br2721   1.931       .  S
C2714     Br2725   1.935       .  S
C2715      C2716   1.406       .  A
C2715      C2720   1.409       .  A
C2716      C2717   1.408       .  A
C2716     Br2727   1.930       .  S
C2717      C2718   1.416       .  A
C2717     Br2723   1.932       .  S
C2718      C2719   1.413       .  A
C2719      C2720   1.406       .  A
C2719     Br2728   1.932       .  S
C2720     Br2724   1.931       .  S
C2729      C2730   1.419       .  A
C2729      C2734   1.419       .  A
C2730      C2731   1.413       .  A
C2730     Br2742   1.925       .  S
C2731      C2732   1.408       .  A
C2731     Br2746   1.932       .  S
C2732      C2735   1.493       .  S
C2732      C2733   1.406       .  A
C2733      C2734   1.409       .  A
C2733     Br2741   1.935       .  S
C2734     Br2745   1.919       .  S
C2735      C2736   1.408       .  A
C2735      C2740   1.412       .  A
C2736      C2737   1.407       .  A
C2736     Br2747   1.934       .  S
C2737      C2738   1.421       .  A
C2737     Br2743   1.938       .  S
C2738      C2739   1.411       .  A
C2739      C2740   1.412       .  A
C2739     Br2748   1.926       .  S
C2740     Br2744   1.929       .  S
C2749      C2750   1.425       .  A
C2749      C2754   1.423       .  A
C2750      C2751   1.413       .  A
C2750     Br2762   1.924       .  S
C2751      C2752   1.406       .  A
C2751     Br2766   1.934       .  S
C2752      C2755   1.491       .  S
C2752      C2753   1.405       .  A
C2753      C2754   1.408       .  A
C2753     Br2761   1.932       .  S
C2754     Br2765   1.936       .  S
C2755      C2756   1.410       .  A
C2755      C2760   1.409       .  A
C2756      C2757   1.410       .  A
C2756     Br2767   1.931       .  S
C2757      C2758   1.415       .  A
C2757     Br2763   1.932       .  S
C2758      C2759   1.416       .  A
C2759      C2760   1.409       .  A
C2759     Br2768   1.929       .  S
C2760     Br2764   1.931       .  S
C2769      C2770   1.410       .  A
C2769      C2774   1.412       .  A
C2770      C2771   1.407       .  A
C2770     Br2782   1.931       .  S
C2771      C2772   1.410       .  A
C2771     Br2786   1.931       .  S
C2772      C2775   1.485       .  S
C2772      C2773   1.409       .  A
C2773      C2774   1.408       .  A
C2773     Br2781   1.930       .  S
C2774     Br2785   1.931       .  S
C2775      C2776   1.408       .  A
C2775      C2780   1.410       .  A
C2776      C2777   1.406       .  A
C2776     Br2787   1.931       .  S
C2777      C2778   1.413       .  A
C2777     Br2783   1.933       .  S
C2778      C2779   1.412       .  A
C2779      C2780   1.408       .  A
C2779     Br2788   1.931       .  S
C2780     Br2784   1.930       .  S
C2789      C2790   1.412       .  A
C2789      C2794   1.415       .  A
C2790      C2791   1.409       .  A
C2790     Br2802   1.930       .  S
C2791      C2792   1.409       .  A
C2791     Br2806   1.930       .  S
C2792      C2795   1.483       .  S
C2792      C2793   1.406       .  A
C2793      C2794   1.406       .  A
C2793     Br2801   1.930       .  S
C2794     Br2805   1.933       .  S
C2795      C2796   1.407       .  A
C2795      C2800   1.408       .  A
C2796      C2797   1.407       .  A
C2796     Br2807   1.931       .  S
C2797      C2798   1.415       .  A
C2797     Br2803   1.932       .  S
C2798      C2799   1.412       .  A
C2799      C2800   1.407       .  A
C2799     Br2808   1.931       .  S
C2800     Br2804   1.930       .  S
C2809      C2810   1.411       .  A
C2809      C2814   1.409       .  A
C2810      C2811   1.403       .  A
C2810     Br2822   1.932       .  S
C2811      C2812   1.407       .  A
C2811     Br2826   1.932       .  S
C2812      C2815   1.474       .  S
C2812      C2813   1.408       .  A
C2813      C2814   1.405       .  A
C2813     Br2821   1.930       .  S
C2814     Br2825   1.930       .  S
C2815      C2816   1.405       .  A
C2815      C2820   1.406       .  A
C2816      C2817   1.403       .  A
C2816     Br2827   1.931       .  S
C2817      C2818   1.416       .  A
C2817     Br2823   1.934       .  S
C2818      C2819   1.416       .  A
C2819      C2820   1.403       .  A
C2819     Br2828   1.934       .  S
C2820     Br2824   1.931       .  S
C2829      C2830   1.430       .  A
C2829      C2834   1.423       .  A
C2830      C2831   1.408       .  A
C2830     Br2842   1.937       .  S
C2831      C2832   1.402       .  A
C2831     Br2846   1.933       .  S
C2832      C2835   1.479       .  S
C2832      C2833   1.401       .  A
C2833      C2834   1.406       .  A
C2833     Br2841   1.935       .  S
C2834     Br2845   1.920       .  S
C2835      C2836   1.410       .  A
C2835      C2840   1.407       .  A
C2836      C2837   1.404       .  A
C2836     Br2847   1.932       .  S
C2837      C2838   1.407       .  A
C2837     Br2843   1.927       .  S
C2838      C2839   1.410       .  A
C2839      C2840   1.406       .  A
C2839     Br2848   1.926       .  S
C2840     Br2844   1.928       .  S
C2849      C2850   1.413       .  A
C2849      C2854   1.417       .  A
C2850      C2851   1.407       .  A
C2850     Br2862   1.924       .  S
C2851      C2852   1.407       .  A
C2851     Br2866   1.932       .  S
C2852      C2855   1.484       .  S
C2852      C2853   1.407       .  A
C2853      C2854   1.409       .  A
C2853     Br2861   1.930       .  S
C2854     Br2865   1.932       .  S
C2855      C2856   1.407       .  A
C2855      C2860   1.406       .  A
C2856      C2857   1.408       .  A
C2856     Br2867   1.930       .  S
C2857      C2858   1.415       .  A
C2857     Br2863   1.932       .  S
C2858      C2859   1.417       .  A
C2859      C2860   1.407       .  A
C2859     Br2868   1.934       .  S
C2860     Br2864   1.931       .  S
C2869      C2870   1.411       .  A
C2869      C2874   1.409       .  A
C2870      C2871   1.407       .  A
C2870     Br2882   1.931       .  S
C2871      C2872   1.409       .  A
C2871     Br2886   1.931       .  S
C2872      C2875   1.485       .  S
C2872      C2873   1.410       .  A
C2873      C2874   1.408       .  A
C2873     Br2881   1.929       .  S
C2874     Br2885   1.930       .  S
C2875      C2876   1.406       .  A
C2875      C2880   1.407       .  A
C2876      C2877   1.407       .  A
C2876     Br2887   1.933       .  S
C2877      C2878   1.422       .  A
C2877     Br2883   1.936       .  S
C2878      C2879   1.415       .  A
C2879      C2880   1.409       .  A
C2879     Br2888   1.925       .  S
C2880     Br2884   1.931       .  S
C2889      C2890   1.417       .  A
C2889      C2894   1.419       .  A
C2890      C2891   1.408       .  A
C2890     Br2902   1.933       .  S
C2891      C2892   1.409       .  A
C2891     Br2906   1.933       .  S
C2892      C2895   1.489       .  S
C2892      C2893   1.408       .  A
C2893      C2894   1.409       .  A
C2893     Br2901   1.932       .  S
C2894     Br2905   1.934       .  S
C2895      C2896   1.402       .  A
C2895      C2900   1.403       .  A
C2896      C2897   1.409       .  A
C2896     Br2907   1.934       .  S
C2897      C2898   1.424       .  A
C2897     Br2903   1.920       .  S
C2898      C2899   1.429       .  A
C2899      C2900   1.412       .  A
C2899     Br2908   1.920       .  S
C2900     Br2904   1.938       .  S
C2909      C2910   1.426       .  A
C2909      C2914   1.430       .  A
C2910      C2911   1.408       .  A
C2910     Br2922   1.925       .  S
C2911      C2912   1.402       .  A
C2911     Br2926   1.934       .  S
C2912      C2915   1.491       .  S
C2912      C2913   1.406       .  A
C2913      C2914   1.415       .  A
C2913     Br2921   1.932       .  S
C2914     Br2925   1.935       .  S
C2915      C2916   1.410       .  A
C2915      C2920   1.410       .  A
C2916      C2917   1.412       .  A
C2916     Br2927   1.927       .  S
C2917      C2918   1.410       .  A
C2917     Br2923   1.925       .  S
C2918      C2919   1.411       .  A
C2919      C2920   1.407       .  A
C2919     Br2928   1.928       .  S
C2920     Br2924   1.932       .  S
C2929      C2930   1.412       .  A
C2929      C2934   1.414       .  A
C2930      C2931   1.406       .  A
C2930     Br2942   1.932       .  S
C2931      C2932   1.408       .  A
C2931     Br2946   1.931       .  S
C2932      C2935   1.482       .  S
C2932      C2933   1.408       .  A
C2933      C2934   1.407       .  A
C2933     Br2941   1.930       .  S
C2934     Br2945   1.932       .  S
C2935      C2936   1.404       .  A
C2935      C2940   1.403       .  A
C2936      C2937   1.410       .  A
C2936     Br2947   1.933       .  S
C2937      C2938   1.425       .  A
C2937     Br2943   1.932       .  S
C2938      C2939   1.426       .  A
C2939      C2940   1.407       .  A
C2939     Br2948   1.934       .  S
C2940     Br2944   1.936       .  S
C2949      C2950   1.411       .  A
C2949      C2954   1.412       .  A
C2950      C2951   1.408       .  A
C2950     Br2962   1.930       .  S
C2951      C2952   1.409       .  A
C2951     Br2966   1.930       .  S
C2952      C2955   1.485       .  S
C2952      C2953   1.408       .  A
C2953      C2954   1.407       .  A
C2953     Br2961   1.930       .  S
C2954     Br2965   1.931       .  S
C2955      C2956   1.406       .  A
C2955      C2960   1.407       .  A
C2956      C2957   1.407       .  A
C2956     Br2967   1.933       .  S
C2957      C2958   1.419       .  A
C2957     Br2963   1.934       .  S
C2958      C2959   1.420       .  A
C2959      C2960   1.410       .  A
C2959     Br2968   1.933       .  S
C2960     Br2964   1.930       .  S
C2969      C2970   1.433       .  A
C2969      C2974   1.433       .  A
C2970      C2971   1.414       .  A
C2970     Br2982   1.937       .  S
C2971      C2972   1.404       .  A
C2971     Br2986   1.935       .  S
C2972      C2975   1.495       .  S
C2972      C2973   1.404       .  A
C2973      C2974   1.414       .  A
C2973     Br2981   1.935       .  S
C2974     Br2985   1.937       .  S
C2975      C2976   1.411       .  A
C2975      C2980   1.411       .  A
C2976      C2977   1.411       .  A
C2976     Br2987   1.928       .  S
C2977      C2978   1.410       .  A
C2977     Br2983   1.928       .  S
C2978      C2979   1.410       .  A
C2979      C2980   1.410       .  A
C2979     Br2988   1.929       .  S
C2980     Br2984   1.929       .  S
C2989      C2990   1.420       .  A
C2989      C2994   1.419       .  A
C2990      C2991   1.410       .  A
C2990     Br3002   1.929       .  S
C2991      C2992   1.406       .  A
C2991     Br3006   1.931       .  S
C2992      C2995   1.486       .  S
C2992      C2993   1.407       .  A
C2993      C2994   1.407       .  A
C2993     Br3001   1.932       .  S
C2994     Br3005   1.934       .  S
C2995      C2996   1.404       .  A
C2995      C3000   1.405       .  A
C2996      C2997   1.408       .  A
C2996     Br3007   1.932       .  S
C2997      C2998   1.427       .  A
C2997     Br3003   1.935       .  S
C2998      C2999   1.419       .  A
C2999      C3000   1.410       .  A
C2999     Br3008   1.919       .  S
C3000     Br3004   1.931       .  S
C3009      C3010   1.411       .  A
C3009      C3014   1.416       .  A
C3010      C3011   1.409       .  A
C3010     Br3022   1.919       .  S
C3011      C3012   1.409       .  A
C3011     Br3026   1.932       .  S
C3012      C3015   1.494       .  S
C3012      C3013   1.410       .  A
C3013      C3014   1.413       .  A
C3013     Br3021   1.928       .  S
C3014     Br3025   1.929       .  S
C3015      C3016   1.408       .  A
C3015      C3020   1.409       .  A
C3016      C3017   1.411       .  A
C3016     Br3027   1.931       .  S
C3017      C3018   1.418       .  A
C3017     Br3023   1.932       .  S
C3018      C3019   1.418       .  A
C3019      C3020   1.412       .  A
C3019     Br3028   1.932       .  S
C3020     Br3024   1.930       .  S
C3029      C3030   1.419       .  A
C3029      C3034   1.423       .  A
C3030      C3031   1.408       .  A
C3030     Br3042   1.919       .  S
C3031      C3032   1.404       .  A
C3031     Br3046   1.933       .  S
C3032      C3035   1.490       .  S
C3032      C3033   1.406       .  A
C3033      C3034   1.413       .  A
C3033     Br3041   1.934       .  S
C3034     Br3045   1.920       .  S
C3035      C3036   1.411       .  A
C3035      C3040   1.406       .  A
C3036      C3037   1.414       .  A
C3036     Br3047   1.928       .  S
C3037      C3038   1.414       .  A
C3037     Br3043   1.923       .  S
C3038      C3039   1.417       .  A
C3039      C3040   1.403       .  A
C3039     Br3048   1.930       .  S
C3040     Br3044   1.933       .  S
C3049      C3050   1.426       .  A
C3049      C3054   1.426       .  A
C3050      C3051   1.411       .  A
C3050     Br3062   1.928       .  S
C3051      C3052   1.404       .  A
C3051     Br3066   1.933       .  S
C3052      C3055   1.488       .  S
C3052      C3053   1.403       .  A
C3053      C3054   1.409       .  A
C3053     Br3061   1.939       .  S
C3054     Br3065   1.921       .  S
C3055      C3056   1.408       .  A
C3055      C3060   1.408       .  A
C3056      C3057   1.409       .  A
C3056     Br3067   1.931       .  S
C3057      C3058   1.417       .  A
C3057     Br3063   1.932       .  S
C3058      C3059   1.417       .  A
C3059      C3060   1.407       .  A
C3059     Br3068   1.934       .  S
C3060     Br3064   1.932       .  S
C3069      C3070   1.432       .  A
C3069      C3074   1.431       .  A
C3070      C3071   1.412       .  A
C3070     Br3082   1.926       .  S
C3071      C3072   1.402       .  A
C3071     Br3086   1.934       .  S
C3072      C3075   1.487       .  S
C3072      C3073   1.403       .  A
C3073      C3074   1.408       .  A
C3073     Br3081   1.937       .  S
C3074     Br3085   1.936       .  S
C3075      C3076   1.405       .  A
C3075      C3080   1.406       .  A
C3076      C3077   1.411       .  A
C3076     Br3087   1.931       .  S
C3077      C3078   1.420       .  A
C3077     Br3083   1.928       .  S
C3078      C3079   1.420       .  A
C3079      C3080   1.407       .  A
C3079     Br3088   1.934       .  S
C3080     Br3084   1.933       .  S
C3089      C3090   1.410       .  A
C3089      C3094   1.410       .  A
C3090      C3091   1.405       .  A
C3090     Br3102   1.931       .  S
C3091      C3092   1.408       .  A
C3091     Br3106   1.930       .  S
C3092      C3095   1.481       .  S
C3092      C3093   1.409       .  A
C3093      C3094   1.407       .  A
C3093     Br3101   1.929       .  S
C3094     Br3105   1.931       .  S
C3095      C3096   1.403       .  A
C3095      C3100   1.405       .  A
C3096      C3097   1.406       .  A
C3096     Br3107   1.933       .  S
C3097      C3098   1.424       .  A
C3097     Br3103   1.937       .  S
C3098      C3099   1.422       .  A
C3099      C3100   1.409       .  A
C3099     Br3108   1.930       .  S
C3100     Br3104   1.933       .  S
C3109      C3110   1.415       .  A
C3109      C3114   1.418       .  A
C3110      C3111   1.411       .  A
C3110     Br3122   1.931       .  S
C3111      C3112   1.409       .  A
C3111     Br3126   1.931       .  S
C3112      C3115   1.493       .  S
C3112      C3113   1.408       .  A
C3113      C3114   1.412       .  A
C3113     Br3121   1.930       .  S
C3114     Br3125   1.932       .  S
C3115      C3116   1.408       .  A
C3115      C3120   1.409       .  A
C3116      C3117   1.411       .  A
C3116     Br3127   1.930       .  S
C3117      C3118   1.416       .  A
C3117     Br3123   1.932       .  S
C3118      C3119   1.416       .  A
C3119      C3120   1.412       .  A
C3119     Br3128   1.931       .  S
C3120     Br3124   1.930       .  S
C3129      C3130   1.414       .  A
C3129      C3134   1.411       .  A
C3130      C3131   1.408       .  A
C3130     Br3142   1.932       .  S
C3131      C3132   1.408       .  A
C3131     Br3146   1.929       .  S
C3132      C3135   1.482       .  S
C3132      C3133   1.409       .  A
C3133      C3134   1.406       .  A
C3133     Br3141   1.931       .  S
C3134     Br3145   1.931       .  S
C3135      C3136   1.406       .  A
C3135      C3140   1.405       .  A
C3136      C3137   1.408       .  A
C3136     Br3147   1.932       .  S
C3137      C3138   1.420       .  A
C3137     Br3143   1.930       .  S
C3138      C3139   1.421       .  A
C3139      C3140   1.407       .  A
C3139     Br3148   1.935       .  S
C3140     Br3144   1.932       .  S
C3149      C3150   1.411       .  A
C3149      C3154   1.409       .  A
C3150      C3151   1.408       .  A
C3150     Br3162   1.930       .  S
C3151      C3152   1.409       .  A
C3151     Br3166   1.929       .  S
C3152      C3155   1.483       .  S
C3152      C3153   1.409       .  A
C3153      C3154   1.405       .  A
C3153     Br3161   1.930       .  S
C3154     Br3165   1.931       .  S
C3155      C3156   1.404       .  A
C3155      C3160   1.402       .  A
C3156      C3157   1.408       .  A
C3156     Br3167   1.935       .  S
C3157      C3158   1.425       .  A
C3157     Br3163   1.933       .  S
C3158      C3159   1.429       .  A
C3159      C3160   1.409       .  A
C3159     Br3168   1.935       .  S
C3160     Br3164   1.934       .  S
C3169      C3170   1.416       .  A
C3169      C3174   1.418       .  A
C3170      C3171   1.413       .  A
C3170     Br3182   1.931       .  S
C3171      C3172   1.410       .  A
C3171     Br3186   1.930       .  S
C3172      C3175   1.497       .  S
C3172      C3173   1.409       .  A
C3173      C3174   1.412       .  A
C3173     Br3181   1.931       .  S
C3174     Br3185   1.932       .  S
C3175      C3176   1.411       .  A
C3175      C3180   1.410       .  A
C3176      C3177   1.413       .  A
C3176     Br3187   1.930       .  S
C3177      C3178   1.416       .  A
C3177     Br3183   1.930       .  S
C3178      C3179   1.417       .  A
C3179      C3180   1.411       .  A
C3179     Br3188   1.933       .  S
C3180     Br3184   1.931       .  S
C3189      C3190   1.409       .  A
C3189      C3194   1.409       .  A
C3190      C3191   1.400       .  A
C3190     Br3202   1.924       .  S
C3191      C3192   1.405       .  A
C3191     Br3206   1.933       .  S
C3192      C3195   1.471       .  S
C3192      C3193   1.407       .  A
C3193      C3194   1.404       .  A
C3193     Br3201   1.929       .  S
C3194     Br3205   1.930       .  S
C3195      C3196   1.402       .  A
C3195      C3200   1.402       .  A
C3196      C3197   1.405       .  A
C3196     Br3207   1.934       .  S
C3197      C3198   1.425       .  A
C3197     Br3203   1.937       .  S
C3198      C3199   1.422       .  A
C3199      C3200   1.403       .  A
C3199     Br3208   1.932       .  S
C3200     Br3204   1.935       .  S
C3209      C3210   1.416       .  A
C3209      C3214   1.414       .  A
C3210      C3211   1.410       .  A
C3210     Br3222   1.931       .  S
C3211      C3212   1.408       .  A
C3211     Br3226   1.929       .  S
C3212      C3215   1.486       .  S
C3212      C3213   1.408       .  A
C3213      C3214   1.407       .  A
C3213     Br3221   1.931       .  S
C3214     Br3225   1.933       .  S
C3215      C3216   1.408       .  A
C3215      C3220   1.408       .  A
C3216      C3217   1.407       .  A
C3216     Br3227   1.931       .  S
C3217      C3218   1.415       .  A
C3217     Br3223   1.933       .  S
C3218      C3219   1.415       .  A
C3219      C3220   1.409       .  A
C3219     Br3228   1.931       .  S
C3220     Br3224   1.930       .  S
C3229      C3230   1.411       .  A
C3229      C3234   1.412       .  A
C3230      C3231   1.409       .  A
C3230     Br3242   1.930       .  S
C3231      C3232   1.410       .  A
C3231     Br3246   1.929       .  S
C3232      C3235   1.489       .  S
C3232      C3233   1.410       .  A
C3233      C3234   1.410       .  A
C3233     Br3241   1.929       .  S
C3234     Br3245   1.931       .  S
C3235      C3236   1.408       .  A
C3235      C3240   1.407       .  A
C3236      C3237   1.409       .  A
C3236     Br3247   1.932       .  S
C3237      C3238   1.417       .  A
C3237     Br3243   1.933       .  S
C3238      C3239   1.420       .  A
C3239      C3240   1.411       .  A
C3239     Br3248   1.933       .  S
C3240     Br3244   1.930       .  S
C3249      C3250   1.419       .  A
C3249      C3254   1.417       .  A
C3250      C3251   1.408       .  A
C3250     Br3262   1.933       .  S
C3251      C3252   1.405       .  A
C3251     Br3266   1.931       .  S
C3252      C3255   1.481       .  S
C3252      C3253   1.407       .  A
C3253      C3254   1.407       .  A
C3253     Br3261   1.932       .  S
C3254     Br3265   1.933       .  S
C3255      C3256   1.409       .  A
C3255      C3260   1.408       .  A
C3256      C3257   1.406       .  A
C3256     Br3267   1.929       .  S
C3257      C3258   1.409       .  A
C3257     Br3263   1.931       .  S
C3258      C3259   1.412       .  A
C3259      C3260   1.406       .  A
C3259     Br3268   1.932       .  S
C3260     Br3264   1.930       .  S
C3269      C3270   1.414       .  A
C3269      C3274   1.413       .  A
C3270      C3271   1.410       .  A
C3270     Br3282   1.930       .  S
C3271      C3272   1.409       .  A
C3271     Br3286   1.930       .  S
C3272      C3275   1.488       .  S
C3272      C3273   1.409       .  A
C3273      C3274   1.408       .  A
C3273     Br3281   1.931       .  S
C3274     Br3285   1.931       .  S
C3275      C3276   1.405       .  A
C3275      C3280   1.405       .  A
C3276      C3277   1.409       .  A
C3276     Br3287   1.935       .  S
C3277      C3278   1.426       .  A
C3277     Br3283   1.935       .  S
C3278      C3279   1.426       .  A
C3279      C3280   1.411       .  A
C3279     Br3288   1.935       .  S
C3280     Br3284   1.933       .  S
C3289      C3290   1.412       .  A
C3289      C3294   1.412       .  A
C3290      C3291   1.407       .  A
C3290     Br3302   1.931       .  S
C3291      C3292   1.409       .  A
C3291     Br3306   1.930       .  S
C3292      C3295   1.487       .  S
C3292      C3293   1.410       .  A
C3293      C3294   1.409       .  A
C3293     Br3301   1.929       .  S
C3294     Br3305   1.931       .  S
C3295      C3296   1.408       .  A
C3295      C3300   1.409       .  A
C3296      C3297   1.407       .  A
C3296     Br3307   1.931       .  S
C3297      C3298   1.414       .  A
C3297     Br3303   1.932       .  S
C3298      C3299   1.416       .  A
C3299      C3300   1.411       .  A
C3299     Br3308   1.932       .  S
C3300     Br3304   1.930       .  S
C3309      C3310   1.413       .  A
C3309      C3314   1.413       .  A
C3310      C3311   1.402       .  A
C3310     Br3322   1.934       .  S
C3311      C3312   1.406       .  A
C3311     Br3326   1.932       .  S
C3312      C3315   1.477       .  S
C3312      C3313   1.408       .  A
C3313      C3314   1.407       .  A
C3313     Br3321   1.930       .  S
C3314     Br3325   1.931       .  S
C3315      C3316   1.406       .  A
C3315      C3320   1.407       .  A
C3316      C3317   1.404       .  A
C3316     Br3327   1.931       .  S
C3317      C3318   1.414       .  A
C3317     Br3323   1.933       .  S
C3318      C3319   1.415       .  A
C3319      C3320   1.406       .  A
C3319     Br3328   1.933       .  S
C3320     Br3324   1.931       .  S
C3329      C3330   1.425       .  A
C3329      C3334   1.426       .  A
C3330      C3331   1.408       .  A
C3330     Br3342   1.936       .  S
C3331      C3332   1.404       .  A
C3331     Br3346   1.934       .  S
C3332      C3335   1.487       .  S
C3332      C3333   1.405       .  A
C3333      C3334   1.412       .  A
C3333     Br3341   1.933       .  S
C3334     Br3345   1.933       .  S
C3335      C3336   1.411       .  A
C3335      C3340   1.409       .  A
C3336      C3337   1.410       .  A
C3336     Br3347   1.928       .  S
C3337      C3338   1.409       .  A
C3337     Br3343   1.929       .  S
C3338      C3339   1.410       .  A
C3339      C3340   1.406       .  A
C3339     Br3348   1.930       .  S
C3340     Br3344   1.930       .  S
C3349      C3350   1.410       .  A
C3349      C3354   1.411       .  A
C3350      C3351   1.409       .  A
C3350     Br3362   1.930       .  S
C3351      C3352   1.410       .  A
C3351     Br3366   1.929       .  S
C3352      C3355   1.486       .  S
C3352      C3353   1.409       .  A
C3353      C3354   1.406       .  A
C3353     Br3361   1.930       .  S
C3354     Br3365   1.932       .  S
C3355      C3356   1.405       .  A
C3355      C3360   1.405       .  A
C3356      C3357   1.409       .  A
C3356     Br3367   1.933       .  S
C3357      C3358   1.423       .  A
C3357     Br3363   1.933       .  S
C3358      C3359   1.424       .  A
C3359      C3360   1.410       .  A
C3359     Br3368   1.930       .  S
C3360     Br3364   1.933       .  S
C3369      C3370   1.414       .  A
C3369      C3374   1.416       .  A
C3370      C3371   1.412       .  A
C3370     Br3382   1.931       .  S
C3371      C3372   1.410       .  A
C3371     Br3386   1.930       .  S
C3372      C3375   1.494       .  S
C3372      C3373   1.409       .  A
C3373      C3374   1.410       .  A
C3373     Br3381   1.931       .  S
C3374     Br3385   1.932       .  S
C3375      C3376   1.407       .  A
C3375      C3380   1.406       .  A
C3376      C3377   1.411       .  A
C3376     Br3387   1.933       .  S
C3377      C3378   1.423       .  A
C3377     Br3383   1.930       .  S
C3378      C3379   1.423       .  A
C3379      C3380   1.413       .  A
C3379     Br3388   1.929       .  S
C3380     Br3384   1.932       .  S
C3389      C3390   1.410       .  A
C3389      C3394   1.410       .  A
C3390      C3391   1.404       .  A
C3390     Br3402   1.932       .  S
C3391      C3392   1.409       .  A
C3391     Br3406   1.931       .  S
C3392      C3395   1.481       .  S
C3392      C3393   1.410       .  A
C3393      C3394   1.407       .  A
C3393     Br3401   1.930       .  S
C3394     Br3405   1.930       .  S
C3395      C3396   1.408       .  A
C3395      C3400   1.406       .  A
C3396      C3397   1.408       .  A
C3396     Br3407   1.932       .  S
C3397      C3398   1.414       .  A
C3397     Br3403   1.924       .  S
C3398      C3399   1.416       .  A
C3399      C3400   1.405       .  A
C3399     Br3408   1.934       .  S
C3400     Br3404   1.932       .  S
C3409      C3410   1.417       .  A
C3409      C3414   1.414       .  A
C3410      C3411   1.411       .  A
C3410     Br3422   1.931       .  S
C3411      C3412   1.407       .  A
C3411     Br3426   1.929       .  S
C3412      C3415   1.487       .  S
C3412      C3413   1.407       .  A
C3413      C3414   1.407       .  A
C3413     Br3421   1.934       .  S
C3414     Br3425   1.921       .  S
C3415      C3416   1.405       .  A
C3415      C3420   1.407       .  A
C3416      C3417   1.406       .  A
C3416     Br3427   1.933       .  S
C3417      C3418   1.420       .  A
C3417     Br3423   1.934       .  S
C3418      C3419   1.417       .  A
C3419      C3420   1.412       .  A
C3419     Br3428   1.927       .  S
C3420     Br3424   1.930       .  S
C3429      C3430   1.419       .  A
C3429      C3434   1.421       .  A
C3430      C3431   1.409       .  A
C3430     Br3442   1.929       .  S
C3431      C3432   1.406       .  A
C3431     Br3446   1.932       .  S
C3432      C3435   1.483       .  S
C3432      C3433   1.405       .  A
C3433      C3434   1.407       .  A
C3433     Br3441   1.932       .  S
C3434     Br3445   1.936       .  S
C3435      C3436   1.408       .  A
C3435      C3440   1.407       .  A
C3436      C3437   1.408       .  A
C3436     Br3447   1.930       .  S
C3437      C3438   1.414       .  A
C3437     Br3443   1.931       .  S
C3438      C3439   1.414       .  A
C3439      C3440   1.406       .  A
C3439     Br3448   1.932       .  S
C3440     Br3444   1.931       .  S
C3449      C3450   1.422       .  A
C3449      C3454   1.423       .  A
C3450      C3451   1.415       .  A
C3450     Br3462   1.929       .  S
C3451      C3452   1.407       .  A
C3451     Br3466   1.931       .  S
C3452      C3455   1.496       .  S
C3452      C3453   1.406       .  A
C3453      C3454   1.412       .  A
C3453     Br3461   1.934       .  S
C3454     Br3465   1.927       .  S
C3455      C3456   1.409       .  A
C3455      C3460   1.410       .  A
C3456      C3457   1.410       .  A
C3456     Br3467   1.930       .  S
C3457      C3458   1.416       .  A
C3457     Br3463   1.933       .  S
C3458      C3459   1.416       .  A
C3459      C3460   1.414       .  A
C3459     Br3468   1.930       .  S
C3460     Br3464   1.929       .  S
C3469      C3470   1.433       .  A
C3469      C3474   1.421       .  A
C3470      C3471   1.420       .  A
C3470     Br3482   1.928       .  S
C3471      C3472   1.408       .  A
C3471     Br3486   1.935       .  S
C3472      C3475   1.498       .  S
C3472      C3473   1.403       .  A
C3473      C3474   1.407       .  A
C3473     Br3481   1.932       .  S
C3474     Br3485   1.924       .  S
C3475      C3476   1.411       .  A
C3475      C3480   1.411       .  A
C3476      C3477   1.414       .  A
C3476     Br3487   1.931       .  S
C3477      C3478   1.417       .  A
C3477     Br3483   1.932       .  S
C3478      C3479   1.416       .  A
C3479      C3480   1.411       .  A
C3479     Br3488   1.932       .  S
C3480     Br3484   1.931       .  S
C3489      C3490   1.425       .  A
C3489      C3494   1.418       .  A
C3490      C3491   1.410       .  A
C3490     Br3502   1.932       .  S
C3491      C3492   1.405       .  A
C3491     Br3506   1.934       .  S
C3492      C3495   1.493       .  S
C3492      C3493   1.408       .  A
C3493      C3494   1.414       .  A
C3493     Br3501   1.930       .  S
C3494     Br3505   1.927       .  S
C3495      C3496   1.411       .  A
C3495      C3500   1.410       .  A
C3496      C3497   1.412       .  A
C3496     Br3507   1.928       .  S
C3497      C3498   1.411       .  A
C3497     Br3503   1.929       .  S
C3498      C3499   1.412       .  A
C3499      C3500   1.409       .  A
C3499     Br3508   1.932       .  S
C3500     Br3504   1.930       .  S
C3509      C3510   1.416       .  A
C3509      C3514   1.415       .  A
C3510      C3511   1.407       .  A
C3510     Br3522   1.929       .  S
C3511      C3512   1.407       .  A
C3511     Br3526   1.931       .  S
C3512      C3515   1.492       .  S
C3512      C3513   1.409       .  A
C3513      C3514   1.414       .  A
C3513     Br3521   1.929       .  S
C3514     Br3525   1.922       .  S
C3515      C3516   1.406       .  A
C3515      C3520   1.403       .  A
C3516      C3517   1.418       .  A
C3516     Br3527   1.931       .  S
C3517      C3518   1.430       .  A
C3517     Br3523   1.928       .  S
C3518      C3519   1.426       .  A
C3519      C3520   1.406       .  A
C3519     Br3528   1.930       .  S
C3520     Br3524   1.936       .  S
C3529      C3530   1.428       .  A
C3529      C3534   1.433       .  A
C3530      C3531   1.409       .  A
C3530     Br3542   1.921       .  S
C3531      C3532   1.402       .  A
C3531     Br3546   1.937       .  S
C3532      C3535   1.496       .  S
C3532      C3533   1.406       .  A
C3533      C3534   1.418       .  A
C3533     Br3541   1.932       .  S
C3534     Br3545   1.934       .  S
C3535      C3536   1.411       .  A
C3535      C3540   1.413       .  A
C3536      C3537   1.412       .  A
C3536     Br3547   1.927       .  S
C3537      C3538   1.411       .  A
C3537     Br3543   1.929       .  S
C3538      C3539   1.409       .  A
C3539      C3540   1.410       .  A
C3539     Br3548   1.930       .  S
C3540     Br3544   1.930       .  S
C3549      C3550   1.412       .  A
C3549      C3554   1.409       .  A
C3550      C3551   1.411       .  A
C3550     Br3562   1.931       .  S
C3551      C3552   1.410       .  A
C3551     Br3566   1.929       .  S
C3552      C3555   1.492       .  S
C3552      C3553   1.411       .  A
C3553      C3554   1.409       .  A
C3553     Br3561   1.928       .  S
C3554     Br3565   1.930       .  S
C3555      C3556   1.407       .  A
C3555      C3560   1.407       .  A
C3556      C3557   1.410       .  A
C3556     Br3567   1.932       .  S
C3557      C3558   1.421       .  A
C3557     Br3563   1.935       .  S
C3558      C3559   1.417       .  A
C3559      C3560   1.413       .  A
C3559     Br3568   1.925       .  S
C3560     Br3564   1.930       .  S
C3569      C3570   1.431       .  A
C3569      C3574   1.432       .  A
C3570      C3571   1.407       .  A
C3570     Br3582   1.922       .  S
C3571      C3572   1.398       .  A
C3571     Br3586   1.938       .  S
C3572      C3575   1.483       .  S
C3572      C3573   1.403       .  A
C3573      C3574   1.411       .  A
C3573     Br3581   1.935       .  S
C3574     Br3585   1.936       .  S
C3575      C3576   1.408       .  A
C3575      C3580   1.410       .  A
C3576      C3577   1.408       .  A
C3576     Br3587   1.928       .  S
C3577      C3578   1.409       .  A
C3577     Br3583   1.928       .  S
C3578      C3579   1.410       .  A
C3579      C3580   1.404       .  A
C3579     Br3588   1.929       .  S
C3580     Br3584   1.932       .  S
C3589      C3590   1.415       .  A
C3589      C3594   1.414       .  A
C3590      C3591   1.410       .  A
C3590     Br3602   1.924       .  S
C3591      C3592   1.408       .  A
C3591     Br3606   1.932       .  S
C3592      C3595   1.493       .  S
C3592      C3593   1.409       .  A
C3593      C3594   1.412       .  A
C3593     Br3601   1.929       .  S
C3594     Br3605   1.924       .  S
C3595      C3596   1.407       .  A
C3595      C3600   1.407       .  A
C3596      C3597   1.411       .  A
C3596     Br3607   1.931       .  S
C3597      C3598   1.421       .  A
C3597     Br3603   1.936       .  S
C3598      C3599   1.418       .  A
C3599      C3600   1.412       .  A
C3599     Br3608   1.923       .  S
C3600     Br3604   1.932       .  S
C3609      C3610   1.411       .  A
C3609      C3614   1.414       .  A
C3610      C3611   1.406       .  A
C3610     Br3622   1.933       .  S
C3611      C3612   1.409       .  A
C3611     Br3626   1.931       .  S
C3612      C3615   1.489       .  S
C3612      C3613   1.409       .  A
C3613      C3614   1.412       .  A
C3613     Br3621   1.928       .  S
C3614     Br3625   1.931       .  S
C3615      C3616   1.410       .  A
C3615      C3620   1.406       .  A
C3616      C3617   1.411       .  A
C3616     Br3627   1.930       .  S
C3617      C3618   1.412       .  A
C3617     Br3623   1.927       .  S
C3618      C3619   1.418       .  A
C3619      C3620   1.409       .  A
C3619     Br3628   1.934       .  S
C3620     Br3624   1.930       .  S
C3629      C3630   1.418       .  A
C3629      C3634   1.417       .  A
C3630      C3631   1.412       .  A
C3630     Br3642   1.932       .  S
C3631      C3632   1.410       .  A
C3631     Br3646   1.930       .  S
C3632      C3635   1.494       .  S
C3632      C3633   1.409       .  A
C3633      C3634   1.409       .  A
C3633     Br3641   1.932       .  S
C3634     Br3645   1.932       .  S
C3635      C3636   1.406       .  A
C3635      C3640   1.404       .  A
C3636      C3637   1.415       .  A
C3636     Br3647   1.935       .  S
C3637      C3638   1.430       .  A
C3637     Br3643   1.930       .  S
C3638      C3639   1.427       .  A
C3639      C3640   1.410       .  A
C3639     Br3648   1.932       .  S
C3640     Br3644   1.933       .  S
C3649      C3650   1.416       .  A
C3649      C3654   1.416       .  A
C3650      C3651   1.408       .  A
C3650     Br3662   1.933       .  S
C3651      C3652   1.408       .  A
C3651     Br3666   1.931       .  S
C3652      C3655   1.484       .  S
C3652      C3653   1.407       .  A
C3653      C3654   1.408       .  A
C3653     Br3661   1.931       .  S
C3654     Br3665   1.932       .  S
C3655      C3656   1.404       .  A
C3655      C3660   1.405       .  A
C3656      C3657   1.407       .  A
C3656     Br3667   1.933       .  S
C3657      C3658   1.427       .  A
C3657     Br3663   1.938       .  S
C3658      C3659   1.425       .  A
C3659      C3660   1.410       .  A
C3659     Br3668   1.935       .  S
C3660     Br3664   1.931       .  S
C3669      C3670   1.418       .  A
C3669      C3674   1.418       .  A
C3670      C3671   1.411       .  A
C3670     Br3682   1.920       .  S
C3671      C3672   1.406       .  A
C3671     Br3686   1.932       .  S
C3672      C3675   1.491       .  S
C3672      C3673   1.406       .  A
C3673      C3674   1.410       .  A
C3673     Br3681   1.931       .  S
C3674     Br3685   1.927       .  S
C3675      C3676   1.410       .  A
C3675      C3680   1.409       .  A
C3676      C3677   1.410       .  A
C3676     Br3687   1.930       .  S
C3677      C3678   1.412       .  A
C3677     Br3683   1.930       .  S
C3678      C3679   1.413       .  A
C3679      C3680   1.410       .  A
C3679     Br3688   1.931       .  S
C3680     Br3684   1.929       .  S
C3689      C3690   1.421       .  A
C3689      C3694   1.414       .  A
C3690      C3691   1.405       .  A
C3690     Br3702   1.938       .  S
C3691      C3692   1.405       .  A
C3691     Br3706   1.932       .  S
C3692      C3695   1.483       .  S
C3692      C3693   1.407       .  A
C3693      C3694   1.409       .  A
C3693     Br3701   1.930       .  S
C3694     Br3705   1.925       .  S
C3695      C3696   1.407       .  A
C3695      C3700   1.405       .  A
C3696      C3697   1.408       .  A
C3696     Br3707   1.932       .  S
C3697      C3698   1.418       .  A
C3697     Br3703   1.934       .  S
C3698      C3699   1.417       .  A
C3699      C3700   1.408       .  A
C3699     Br3708   1.925       .  S
C3700     Br3704   1.932       .  S
C3709      C3710   1.430       .  A
C3709      C3714   1.431       .  A
C3710      C3711   1.409       .  A
C3710     Br3722   1.936       .  S
C3711      C3712   1.402       .  A
C3711     Br3726   1.932       .  S
C3712      C3715   1.489       .  S
C3712      C3713   1.403       .  A
C3713      C3714   1.410       .  A
C3713     Br3721   1.936       .  S
C3714     Br3725   1.931       .  S
C3715      C3716   1.404       .  A
C3715      C3720   1.404       .  A
C3716      C3717   1.406       .  A
C3716     Br3727   1.937       .  S
C3717      C3718   1.426       .  A
C3717     Br3723   1.932       .  S
C3718      C3719   1.425       .  A
C3719      C3720   1.415       .  A
C3719     Br3728   1.925       .  S
C3720     Br3724   1.931       .  S
C3729      C3730   1.412       .  A
C3729      C3734   1.418       .  A
C3730      C3731   1.410       .  A
C3730     Br3742   1.922       .  S
C3731      C3732   1.410       .  A
C3731     Br3746   1.930       .  S
C3732      C3735   1.486       .  S
C3732      C3733   1.407       .  A
C3733      C3734   1.404       .  A
C3733     Br3741   1.933       .  S
C3734     Br3745   1.933       .  S
C3735      C3736   1.407       .  A
C3735      C3740   1.402       .  A
C3736      C3737   1.412       .  A
C3736     Br3747   1.935       .  S
C3737      C3738   1.425       .  A
C3737     Br3743   1.927       .  S
C3738      C3739   1.424       .  A
C3739      C3740   1.406       .  A
C3739     Br3748   1.928       .  S
C3740     Br3744   1.934       .  S
C3749      C3750   1.411       .  A
C3749      C3754   1.414       .  A
C3750      C3751   1.408       .  A
C3750     Br3762   1.930       .  S
C3751      C3752   1.409       .  A
C3751     Br3766   1.929       .  S
C3752      C3755   1.488       .  S
C3752      C3753   1.409       .  A
C3753      C3754   1.408       .  A
C3753     Br3761   1.930       .  S
C3754     Br3765   1.934       .  S
C3755      C3756   1.408       .  A
C3755      C3760   1.410       .  A
C3756      C3757   1.410       .  A
C3756     Br3767   1.930       .  S
C3757      C3758   1.415       .  A
C3757     Br3763   1.931       .  S
C3758      C3759   1.412       .  A
C3759      C3760   1.409       .  A
C3759     Br3768   1.930       .  S
C3760     Br3764   1.931       .  S
C3769      C3770   1.421       .  A
C3769      C3774   1.423       .  A
C3770      C3771   1.406       .  A
C3770     Br3782   1.934       .  S
C3771      C3772   1.404       .  A
C3771     Br3786   1.931       .  S
C3772      C3775   1.479       .  S
C3772      C3773   1.404       .  A
C3773      C3774   1.406       .  A
C3773     Br3781   1.931       .  S
C3774     Br3785   1.935       .  S
C3775      C3776   1.408       .  A
C3775      C3780   1.407       .  A
C3776      C3777   1.406       .  A
C3776     Br3787   1.930       .  S
C3777      C3778   1.411       .  A
C3777     Br3783   1.931       .  S
C3778      C3779   1.412       .  A
C3779      C3780   1.404       .  A
C3779     Br3788   1.932       .  S
C3780     Br3784   1.930       .  S
C3789      C3790   1.432       .  A
C3789      C3794   1.427       .  A
C3790      C3791   1.412       .  A
C3790     Br3802   1.927       .  S
C3791      C3792   1.404       .  A
C3791     Br3806   1.936       .  S
C3792      C3795   1.492       .  S
C3792      C3793   1.405       .  A
C3793      C3794   1.406       .  A
C3793     Br3801   1.933       .  S
C3794     Br3805   1.931       .  S
C3795      C3796   1.411       .  A
C3795      C3800   1.411       .  A
C3796      C3797   1.408       .  A
C3796     Br3807   1.932       .  S
C3797      C3798   1.415       .  A
C3797     Br3803   1.935       .  S
C3798      C3799   1.410       .  A
C3799      C3800   1.409       .  A
C3799     Br3808   1.924       .  S
C3800     Br3804   1.932       .  S
C3809      C3810   1.417       .  A
C3809      C3814   1.413       .  A
C3810      C3811   1.410       .  A
C3810     Br3822   1.932       .  S
C3811      C3812   1.408       .  A
C3811     Br3826   1.930       .  S
C3812      C3815   1.493       .  S
C3812      C3813   1.409       .  A
C3813      C3814   1.412       .  A
C3813     Br3821   1.930       .  S
C3814     Br3825   1.921       .  S
C3815      C3816   1.404       .  A
C3815      C3820   1.405       .  A
C3816      C3817   1.412       .  A
C3816     Br3827   1.934       .  S
C3817      C3818   1.425       .  A
C3817     Br3823   1.923       .  S
C3818      C3819   1.422       .  A
C3819      C3820   1.413       .  A
C3819     Br3828   1.923       .  S
C3820     Br3824   1.932       .  S
C3829      C3830   1.408       .  A
C3829      C3834   1.412       .  A
C3830      C3831   1.409       .  A
C3830     Br3842   1.929       .  S
C3831      C3832   1.410       .  A
C3831     Br3846   1.928       .  S
C3832      C3835   1.488       .  S
C3832      C3833   1.409       .  A
C3833      C3834   1.408       .  A
C3833     Br3841   1.930       .  S
C3834     Br3845   1.929       .  S
C3835      C3836   1.407       .  A
C3835      C3840   1.406       .  A
C3836      C3837   1.409       .  A
C3836     Br3847   1.932       .  S
C3837      C3838   1.416       .  A
C3837     Br3843   1.926       .  S
C3838      C3839   1.424       .  A
C3839      C3840   1.410       .  A
C3839     Br3848   1.936       .  S
C3840     Br3844   1.931       .  S
C3849      C3850   1.415       .  A
C3849      C3854   1.416       .  A
C3850      C3851   1.404       .  A
C3850     Br3862   1.921       .  S
C3851      C3852   1.405       .  A
C3851     Br3866   1.932       .  S
C3852      C3855   1.488       .  S
C3852      C3853   1.409       .  A
C3853      C3854   1.414       .  A
C3853     Br3861   1.927       .  S
C3854     Br3865   1.922       .  S
C3855      C3856   1.408       .  A
C3855      C3860   1.410       .  A
C3856      C3857   1.410       .  A
C3856     Br3867   1.929       .  S
C3857      C3858   1.414       .  A
C3857     Br3863   1.931       .  S
C3858      C3859   1.411       .  A
C3859      C3860   1.409       .  A
C3859     Br3868   1.930       .  S
C3860     Br3864   1.930       .  S
C3869      C3870   1.424       .  A
C3869      C3874   1.419       .  A
C3870      C3871   1.404       .  A
C3870     Br3882   1.936       .  S
C3871      C3872   1.404       .  A
C3871     Br3886   1.931       .  S
C3872      C3875   1.485       .  S
C3872      C3873   1.407       .  A
C3873      C3874   1.412       .  A
C3873     Br3881   1.929       .  S
C3874     Br3885   1.922       .  S
C3875      C3876   1.403       .  A
C3875      C3880   1.406       .  A
C3876      C3877   1.406       .  A
C3876     Br3887   1.933       .  S
C3877      C3878   1.423       .  A
C3877     Br3883   1.935       .  S
C3878      C3879   1.424       .  A
C3879      C3880   1.412       .  A
C3879     Br3888   1.927       .  S
C3880     Br3884   1.933       .  S
C3889      C3890   1.408       .  A
C3889      C3894   1.415       .  A
C3890      C3891   1.409       .  A
C3890     Br3902   1.923       .  S
C3891      C3892   1.412       .  A
C3891     Br3906   1.931       .  S
C3892      C3895   1.491       .  S
C3892      C3893   1.410       .  A
C3893      C3894   1.407       .  A
C3893     Br3901   1.932       .  S
C3894     Br3905   1.930       .  S
C3895      C3896   1.412       .  A
C3895      C3900   1.408       .  A
C3896      C3897   1.410       .  A
C3896     Br3907   1.930       .  S
C3897      C3898   1.413       .  A
C3897     Br3903   1.930       .  S
C3898      C3899   1.410       .  A
C3899      C3900   1.407       .  A
C3899     Br3908   1.915       .  S
C3900     Br3904   1.934       .  S
C3909      C3910   1.419       .  A
C3909      C3914   1.419       .  A
C3910      C3911   1.409       .  A
C3910     Br3922   1.933       .  S
C3911      C3912   1.407       .  A
C3911     Br3926   1.931       .  S
C3912      C3915   1.485       .  S
C3912      C3913   1.407       .  A
C3913      C3914   1.407       .  A
C3913     Br3921   1.933       .  S
C3914     Br3925   1.934       .  S
C3915      C3916   1.404       .  A
C3915      C3920   1.407       .  A
C3916      C3917   1.404       .  A
C3916     Br3927   1.934       .  S
C3917      C3918   1.422       .  A
C3917     Br3923   1.928       .  S
C3918      C3919   1.423       .  A
C3919      C3920   1.412       .  A
C3919     Br3928   1.933       .  S
C3920     Br3924   1.930       .  S
C3929      C3930   1.425       .  A
C3929      C3934   1.422       .  A
C3930      C3931   1.411       .  A
C3930     Br3942   1.934       .  S
C3931      C3932   1.406       .  A
C3931     Br3946   1.932       .  S
C3932      C3935   1.490       .  S
C3932      C3933   1.405       .  A
C3933      C3934   1.411       .  A
C3933     Br3941   1.934       .  S
C3934     Br3945   1.923       .  S
C3935      C3936   1.408       .  A
C3935      C3940   1.409       .  A
C3936      C3937   1.410       .  A
C3936     Br3947   1.931       .  S
C3937      C3938   1.418       .  A
C3937     Br3943   1.933       .  S
C3938      C3939   1.419       .  A
C3939      C3940   1.409       .  A
C3939     Br3948   1.934       .  S
C3940     Br3944   1.933       .  S
C3949      C3950   1.415       .  A
C3949      C3954   1.428       .  A
C3950      C3951   1.404       .  A
C3950     Br3962   1.919       .  S
C3951      C3952   1.403       .  A
C3951     Br3966   1.932       .  S
C3952      C3955   1.485       .  S
C3952      C3953   1.405       .  A
C3953      C3954   1.414       .  A
C3953     Br3961   1.933       .  S
C3954     Br3965   1.926       .  S
C3955      C3956   1.405       .  A
C3955      C3960   1.403       .  A
C3956      C3957   1.411       .  A
C3956     Br3967   1.932       .  S
C3957      C3958   1.421       .  A
C3957     Br3963   1.923       .  S
C3958      C3959   1.421       .  A
C3959      C3960   1.407       .  A
C3959     Br3968   1.928       .  S
C3960     Br3964   1.933       .  S
C3969      C3970   1.415       .  A
C3969      C3974   1.409       .  A
C3970      C3971   1.405       .  A
C3970     Br3982   1.935       .  S
C3971      C3972   1.408       .  A
C3971     Br3986   1.932       .  S
C3972      C3975   1.483       .  S
C3972      C3973   1.409       .  A
C3973      C3974   1.407       .  A
C3973     Br3981   1.929       .  S
C3974     Br3985   1.928       .  S
C3975      C3976   1.402       .  A
C3975      C3980   1.403       .  A
C3976      C3977   1.405       .  A
C3976     Br3987   1.933       .  S
C3977      C3978   1.423       .  A
C3977     Br3983   1.931       .  S
C3978      C3979   1.431       .  A
C3979      C3980   1.412       .  A
C3979     Br3988   1.930       .  S
C3980     Br3984   1.937       .  S
C3989      C3990   1.409       .  A
C3989      C3994   1.412       .  A
C3990      C3991   1.407       .  A
C3990     Br4002   1.932       .  S
C3991      C3992   1.409       .  A
C3991     Br4006   1.928       .  S
C3992      C3995   1.485       .  S
C3992      C3993   1.409       .  A
C3993      C3994   1.407       .  A
C3993     Br4001   1.930       .  S
C3994     Br4005   1.933       .  S
C3995      C3996   1.407       .  A
C3995      C4000   1.408       .  A
C3996      C3997   1.410       .  A
C3996     Br4007   1.930       .  S
C3997      C3998   1.418       .  A
C3997     Br4003   1.932       .  S
C3998      C3999   1.414       .  A
C3999      C4000   1.406       .  A
C3999     Br4008   1.932       .  S
C4000     Br4004   1.932       .  S
C4009      C4010   1.427       .  A
C4009      C4014   1.422       .  A
C4010      C4011   1.412       .  A
C4010     Br4022   1.934       .  S
C4011      C4012   1.405       .  A
C4011     Br4026   1.930       .  S
C4012      C4015   1.484       .  S
C4012      C4013   1.402       .  A
C4013      C4014   1.406       .  A
C4013     Br4021   1.935       .  S
C4014     Br4025   1.918       .  S
C4015      C4016   1.409       .  A
C4015      C4020   1.407       .  A
C4016      C4017   1.408       .  A
C4016     Br4027   1.930       .  S
C4017      C4018   1.414       .  A
C4017     Br4023   1.932       .  S
C4018      C4019   1.413       .  A
C4019      C4020   1.407       .  A
C4019     Br4028   1.926       .  S
C4020     Br4024   1.931       .  S
C4029      C4030   1.430       .  A
C4029      C4034   1.437       .  A
C4030      C4031   1.412       .  A
C4030     Br4042   1.929       .  S
C4031      C4032   1.401       .  A
C4031     Br4046   1.935       .  S
C4032      C4035   1.486       .  S
C4032      C4033   1.400       .  A
C4033      C4034   1.410       .  A
C4033     Br4041   1.938       .  S
C4034     Br4045   1.937       .  S
C4035      C4036   1.404       .  A
C4035      C4040   1.408       .  A
C4036      C4037   1.405       .  A
C4036     Br4047   1.931       .  S
C4037      C4038   1.416       .  A
C4037     Br4043   1.922       .  S
C4038      C4039   1.415       .  A
C4039      C4040   1.411       .  A
C4039     Br4048   1.919       .  S
C4040     Br4044   1.931       .  S
C4049      C4050   1.414       .  A
C4049      C4054   1.416       .  A
C4050      C4051   1.408       .  A
C4050     Br4062   1.933       .  S
C4051      C4052   1.409       .  A
C4051     Br4066   1.931       .  S
C4052      C4055   1.488       .  S
C4052      C4053   1.407       .  A
C4053      C4054   1.408       .  A
C4053     Br4061   1.930       .  S
C4054     Br4065   1.933       .  S
C4055      C4056   1.404       .  A
C4055      C4060   1.407       .  A
C4056      C4057   1.409       .  A
C4056     Br4067   1.930       .  S
C4057      C4058   1.422       .  A
C4057     Br4063   1.933       .  S
C4058      C4059   1.420       .  A
C4059      C4060   1.410       .  A
C4059     Br4068   1.925       .  S
C4060     Br4064   1.935       .  S
C4069      C4070   1.430       .  A
C4069      C4074   1.427       .  A
C4070      C4071   1.410       .  A
C4070     Br4082   1.937       .  S
C4071      C4072   1.404       .  A
C4071     Br4086   1.934       .  S
C4072      C4075   1.484       .  S
C4072      C4073   1.403       .  A
C4073      C4074   1.405       .  A
C4073     Br4081   1.933       .  S
C4074     Br4085   1.937       .  S
C4075      C4076   1.409       .  A
C4075      C4080   1.411       .  A
C4076      C4077   1.408       .  A
C4076     Br4087   1.928       .  S
C4077      C4078   1.410       .  A
C4077     Br4083   1.930       .  S
C4078      C4079   1.408       .  A
C4079      C4080   1.405       .  A
C4079     Br4088   1.930       .  S
C4080     Br4084   1.932       .  S
C4089      C4090   1.421       .  A
C4089      C4094   1.420       .  A
C4090      C4091   1.409       .  A
C4090     Br4102   1.922       .  S
C4091      C4092   1.405       .  A
C4091     Br4106   1.933       .  S
C4092      C4095   1.486       .  S
C4092      C4093   1.404       .  A
C4093      C4094   1.409       .  A
C4093     Br4101   1.932       .  S
C4094     Br4105   1.923       .  S
C4095      C4096   1.409       .  A
C4095      C4100   1.409       .  A
C4096      C4097   1.408       .  A
C4096     Br4107   1.930       .  S
C4097      C4098   1.413       .  A
C4097     Br4103   1.931       .  S
C4098      C4099   1.413       .  A
C4099      C4100   1.408       .  A
C4099     Br4108   1.931       .  S
C4100     Br4104   1.931       .  S
C4109      C4110   1.421       .  A
C4109      C4114   1.420       .  A
C4110      C4111   1.410       .  A
C4110     Br4122   1.921       .  S
C4111      C4112   1.405       .  A
C4111     Br4126   1.934       .  S
C4112      C4115   1.488       .  S
C4112      C4113   1.406       .  A
C4113      C4114   1.409       .  A
C4113     Br4121   1.932       .  S
C4114     Br4125   1.928       .  S
C4115      C4116   1.404       .  A
C4115      C4120   1.407       .  A
C4116      C4117   1.406       .  A
C4116     Br4127   1.932       .  S
C4117      C4118   1.417       .  A
C4117     Br4123   1.923       .  S
C4118      C4119   1.420       .  A
C4119      C4120   1.412       .  A
C4119     Br4128   1.920       .  S
C4120     Br4124   1.933       .  S
C4129      C4130   1.412       .  A
C4129      C4134   1.412       .  A
C4130      C4131   1.409       .  A
C4130     Br4142   1.929       .  S
C4131      C4132   1.408       .  A
C4131     Br4146   1.928       .  S
C4132      C4135   1.484       .  S
C4132      C4133   1.408       .  A
C4133      C4134   1.404       .  A
C4133     Br4141   1.931       .  S
C4134     Br4145   1.935       .  S
C4135      C4136   1.405       .  A
C4135      C4140   1.410       .  A
C4136      C4137   1.406       .  A
C4136     Br4147   1.931       .  S
C4137      C4138   1.421       .  A
C4137     Br4143   1.936       .  S
C4138      C4139   1.411       .  A
C4139      C4140   1.409       .  A
C4139     Br4148   1.926       .  S
C4140     Br4144   1.930       .  S
C4149      C4150   1.433       .  A
C4149      C4154   1.424       .  A
C4150      C4151   1.409       .  A
C4150     Br4162   1.934       .  S
C4151      C4152   1.402       .  A
C4151     Br4166   1.936       .  S
C4152      C4155   1.490       .  S
C4152      C4153   1.405       .  A
C4153      C4154   1.413       .  A
C4153     Br4161   1.932       .  S
C4154     Br4165   1.924       .  S
C4155      C4156   1.409       .  A
C4155      C4160   1.408       .  A
C4156      C4157   1.409       .  A
C4156     Br4167   1.931       .  S
C4157      C4158   1.414       .  A
C4157     Br4163   1.931       .  S
C4158      C4159   1.416       .  A
C4159      C4160   1.410       .  A
C4159     Br4168   1.933       .  S
C4160     Br4164   1.930       .  S
C4169      C4170   1.422       .  A
C4169      C4174   1.419       .  A
C4170      C4171   1.413       .  A
C4170     Br4182   1.921       .  S
C4171      C4172   1.407       .  A
C4171     Br4186   1.933       .  S
C4172      C4175   1.490       .  S
C4172      C4173   1.405       .  A
C4173      C4174   1.407       .  A
C4173     Br4181   1.933       .  S
C4174     Br4185   1.924       .  S
C4175      C4176   1.407       .  A
C4175      C4180   1.407       .  A
C4176      C4177   1.410       .  A
C4176     Br4187   1.933       .  S
C4177      C4178   1.422       .  A
C4177     Br4183   1.935       .  S
C4178      C4179   1.420       .  A
C4179      C4180   1.410       .  A
C4179     Br4188   1.933       .  S
C4180     Br4184   1.932       .  S
C4189      C4190   1.422       .  A
C4189      C4194   1.416       .  A
C4190      C4191   1.403       .  A
C4190     Br4202   1.940       .  S
C4191      C4192   1.410       .  A
C4191     Br4206   1.936       .  S
C4192      C4195   1.489       .  S
C4192      C4193   1.410       .  A
C4193      C4194   1.411       .  A
C4193     Br4201   1.931       .  S
C4194     Br4205   1.928       .  S
C4195      C4196   1.410       .  A
C4195      C4200   1.410       .  A
C4196      C4197   1.407       .  A
C4196     Br4207   1.930       .  S
C4197      C4198   1.414       .  A
C4197     Br4203   1.931       .  S
C4198      C4199   1.408       .  A
C4199      C4200   1.405       .  A
C4199     Br4208   1.919       .  S
C4200     Br4204   1.933       .  S
C4209      C4210   1.423       .  A
C4209      C4214   1.417       .  A
C4210      C4211   1.408       .  A
C4210     Br4222   1.932       .  S
C4211      C4212   1.406       .  A
C4211     Br4226   1.931       .  S
C4212      C4215   1.480       .  S
C4212      C4213   1.404       .  A
C4213      C4214   1.404       .  A
C4213     Br4221   1.931       .  S
C4214     Br4225   1.920       .  S
C4215      C4216   1.407       .  A
C4215      C4220   1.407       .  A
C4216      C4217   1.405       .  A
C4216     Br4227   1.931       .  S
C4217      C4218   1.415       .  A
C4217     Br4223   1.933       .  S
C4218      C4219   1.414       .  A
C4219      C4220   1.407       .  A
C4219     Br4228   1.926       .  S
C4220     Br4224   1.932       .  S
C4229      C4230   1.418       .  A
C4229      C4234   1.419       .  A
C4230      C4231   1.404       .  A
C4230     Br4242   1.925       .  S
C4231      C4232   1.403       .  A
C4231     Br4246   1.934       .  S
C4232      C4235   1.477       .  S
C4232      C4233   1.402       .  A
C4233      C4234   1.407       .  A
C4233     Br4241   1.934       .  S
C4234     Br4245   1.918       .  S
C4235      C4236   1.408       .  A
C4235      C4240   1.406       .  A
C4236      C4237   1.405       .  A
C4236     Br4247   1.930       .  S
C4237      C4238   1.410       .  A
C4237     Br4243   1.931       .  S
C4238      C4239   1.411       .  A
C4239      C4240   1.404       .  A
C4239     Br4248   1.926       .  S
C4240     Br4244   1.931       .  S
C4249      C4250   1.420       .  A
C4249      C4254   1.420       .  A
C4250      C4251   1.407       .  A
C4250     Br4262   1.923       .  S
C4251      C4252   1.404       .  A
C4251     Br4266   1.935       .  S
C4252      C4255   1.487       .  S
C4252      C4253   1.405       .  A
C4253      C4254   1.412       .  A
C4253     Br4261   1.931       .  S
C4254     Br4265   1.921       .  S
C4255      C4256   1.402       .  A
C4255      C4260   1.406       .  A
C4256      C4257   1.408       .  A
C4256     Br4267   1.931       .  S
C4257      C4258   1.425       .  A
C4257     Br4263   1.931       .  S
C4258      C4259   1.422       .  A
C4259      C4260   1.411       .  A
C4259     Br4268   1.926       .  S
C4260     Br4264   1.933       .  S
C4269      C4270   1.417       .  A
C4269      C4274   1.415       .  A
C4270      C4271   1.410       .  A
C4270     Br4282   1.927       .  S
C4271      C4272   1.408       .  A
C4271     Br4286   1.931       .  S
C4272      C4275   1.497       .  S
C4272      C4273   1.410       .  A
C4273      C4274   1.413       .  A
C4273     Br4281   1.931       .  S
C4274     Br4285   1.918       .  S
C4275      C4276   1.409       .  A
C4275      C4280   1.410       .  A
C4276      C4277   1.411       .  A
C4276     Br4287   1.932       .  S
C4277      C4278   1.419       .  A
C4277     Br4283   1.933       .  S
C4278      C4279   1.420       .  A
C4279      C4280   1.414       .  A
C4279     Br4288   1.932       .  S
C4280     Br4284   1.931       .  S
C4289      C4290   1.423       .  A
C4289      C4294   1.417       .  A
C4290      C4291   1.408       .  A
C4290     Br4302   1.936       .  S
C4291      C4292   1.404       .  A
C4291     Br4306   1.932       .  S
C4292      C4295   1.485       .  S
C4292      C4293   1.406       .  A
C4293      C4294   1.410       .  A
C4293     Br4301   1.932       .  S
C4294     Br4305   1.924       .  S
C4295      C4296   1.407       .  A
C4295      C4300   1.408       .  A
C4296      C4297   1.404       .  A
C4296     Br4307   1.932       .  S
C4297      C4298   1.415       .  A
C4297     Br4303   1.934       .  S
C4298      C4299   1.411       .  A
C4299      C4300   1.410       .  A
C4299     Br4308   1.925       .  S
C4300     Br4304   1.928       .  S
C4309      C4310   1.422       .  A
C4309      C4314   1.430       .  A
C4310      C4311   1.407       .  A
C4310     Br4322   1.919       .  S
C4311      C4312   1.403       .  A
C4311     Br4326   1.934       .  S
C4312      C4315   1.487       .  S
C4312      C4313   1.404       .  A
C4313      C4314   1.412       .  A
C4313     Br4321   1.934       .  S
C4314     Br4325   1.931       .  S
C4315      C4316   1.411       .  A
C4315      C4320   1.408       .  A
C4316      C4317   1.408       .  A
C4316     Br4327   1.930       .  S
C4317      C4318   1.411       .  A
C4317     Br4323   1.931       .  S
C4318      C4319   1.414       .  A
C4319      C4320   1.407       .  A
C4319     Br4328   1.933       .  S
C4320     Br4324   1.930       .  S
C4329      C4330   1.420       .  A
C4329      C4334   1.425       .  A
C4330      C4331   1.403       .  A
C4330     Br4342   1.915       .  S
C4331      C4332   1.400       .  A
C4331     Br4346   1.936       .  S
C4332      C4335   1.483       .  S
C4332      C4333   1.405       .  A
C4333      C4334   1.412       .  A
C4333     Br4341   1.934       .  S
C4334     Br4345   1.925       .  S
C4335      C4336   1.404       .  A
C4335      C4340   1.407       .  A
C4336      C4337   1.406       .  A
C4336     Br4347   1.932       .  S
C4337      C4338   1.417       .  A
C4337     Br4343   1.922       .  S
C4338      C4339   1.415       .  A
C4339      C4340   1.407       .  A
C4339     Br4348   1.919       .  S
C4340     Br4344   1.934       .  S
C4349      C4350   1.429       .  A
C4349      C4354   1.428       .  A
C4350      C4351   1.410       .  A
C4350     Br4362   1.930       .  S
C4351      C4352   1.403       .  A
C4351     Br4366   1.935       .  S
C4352      C4355   1.481       .  S
C4352      C4353   1.401       .  A
C4353      C4354   1.405       .  A
C4353     Br4361   1.936       .  S
C4354     Br4365   1.933       .  S
C4355      C4356   1.410       .  A
C4355      C4360   1.408       .  A
C4356      C4357   1.406       .  A
C4356     Br4367   1.930       .  S
C4357      C4358   1.409       .  A
C4357     Br4363   1.929       .  S
C4358      C4359   1.410       .  A
C4359      C4360   1.405       .  A
C4359     Br4368   1.929       .  S
C4360     Br4364   1.930       .  S
C4369      C4370   1.413       .  A
C4369      C4374   1.415       .  A
C4370      C4371   1.405       .  A
C4370     Br4382   1.931       .  S
C4371      C4372   1.408       .  A
C4371     Br4386   1.932       .  S
C4372      C4375   1.485       .  S
C4372      C4373   1.408       .  A
C4373      C4374   1.409       .  A
C4373     Br4381   1.930       .  S
C4374     Br4385   1.933       .  S
C4375      C4376   1.409       .  A
C4375      C4380   1.410       .  A
C4376      C4377   1.410       .  A
C4376     Br4387   1.928       .  S
C4377      C4378   1.413       .  A
C4377     Br4383   1.931       .  S
C4378      C4379   1.410       .  A
C4379      C4380   1.403       .  A
C4379     Br4388   1.934       .  S
C4380     Br4384   1.932       .  S
C4389      C4390   1.414       .  A
C4389      C4394   1.418       .  A
C4390      C4391   1.405       .  A
C4390     Br4402   1.932       .  S
C4391      C4392   1.407       .  A
C4391     Br4406   1.932       .  S
C4392      C4395   1.477       .  S
C4392      C4393   1.404       .  A
C4393      C4394   1.405       .  A
C4393     Br4401   1.931       .  S
C4394     Br4405   1.934       .  S
C4395      C4396   1.402       .  A
C4395      C4400   1.401       .  A
C4396      C4397   1.406       .  A
C4396     Br4407   1.935       .  S
C4397      C4398   1.423       .  A
C4397     Br4403   1.920       .  S
C4398      C4399   1.428       .  A
C4399      C4400   1.405       .  A
C4399     Br4408   1.935       .  S
C4400     Br4404   1.933       .  S
C4409      C4410   1.417       .  A
C4409      C4414   1.417       .  A
C4410      C4411   1.406       .  A
C4410     Br4422   1.931       .  S
C4411      C4412   1.407       .  A
C4411     Br4426   1.932       .  S
C4412      C4415   1.489       .  S
C4412      C4413   1.409       .  A
C4413      C4414   1.413       .  A
C4413     Br4421   1.932       .  S
C4414     Br4425   1.923       .  S
C4415      C4416   1.408       .  A
C4415      C4420   1.408       .  A
C4416      C4417   1.411       .  A
C4416     Br4427   1.931       .  S
C4417      C4418   1.417       .  A
C4417     Br4423   1.924       .  S
C4418      C4419   1.419       .  A
C4419      C4420   1.407       .  A
C4419     Br4428   1.935       .  S
C4420     Br4424   1.932       .  S
C4429      C4430   1.414       .  A
C4429      C4434   1.417       .  A
C4430      C4431   1.413       .  A
C4430     Br4442   1.922       .  S
C4431      C4432   1.408       .  A
C4431     Br4446   1.929       .  S
C4432      C4435   1.490       .  S
C4432      C4433   1.406       .  A
C4433      C4434   1.408       .  A
C4433     Br4441   1.932       .  S
C4434     Br4445   1.926       .  S
C4435      C4436   1.410       .  A
C4435      C4440   1.410       .  A
C4436      C4437   1.410       .  A
C4436     Br4447   1.929       .  S
C4437      C4438   1.412       .  A
C4437     Br4443   1.930       .  S
C4438      C4439   1.412       .  A
C4439      C4440   1.410       .  A
C4439     Br4448   1.931       .  S
C4440     Br4444   1.930       .  S
C4449      C4450   1.425       .  A
C4449      C4454   1.424       .  A
C4450      C4451   1.409       .  A
C4450     Br4462   1.933       .  S
C4451      C4452   1.405       .  A
C4451     Br4466   1.931       .  S
C4452      C4455   1.488       .  S
C4452      C4453   1.404       .  A
C4453      C4454   1.411       .  A
C4453     Br4461   1.931       .  S
C4454     Br4465   1.922       .  S
C4455      C4456   1.407       .  A
C4455      C4460   1.405       .  A
C4456      C4457   1.411       .  A
C4456     Br4467   1.931       .  S
C4457      C4458   1.421       .  A
C4457     Br4463   1.933       .  S
C4458      C4459   1.421       .  A
C4459      C4460   1.409       .  A
C4459     Br4468   1.929       .  S
C4460     Br4464   1.933       .  S
C4469      C4470   1.416       .  A
C4469      C4474   1.420       .  A
C4470      C4471   1.411       .  A
C4470     Br4482   1.921       .  S
C4471      C4472   1.409       .  A
C4471     Br4486   1.933       .  S
C4472      C4475   1.494       .  S
C4472      C4473   1.406       .  A
C4473      C4474   1.412       .  A
C4473     Br4481   1.930       .  S
C4474     Br4485   1.927       .  S
C4475      C4476   1.410       .  A
C4475      C4480   1.409       .  A
C4476      C4477   1.412       .  A
C4476     Br4487   1.930       .  S
C4477      C4478   1.412       .  A
C4477     Br4483   1.923       .  S
C4478      C4479   1.415       .  A
C4479      C4480   1.410       .  A
C4479     Br4488   1.931       .  S
C4480     Br4484   1.930       .  S
C4489      C4490   1.419       .  A
C4489      C4494   1.419       .  A
C4490      C4491   1.407       .  A
C4490     Br4502   1.927       .  S
C4491      C4492   1.404       .  A
C4491     Br4506   1.933       .  S
C4492      C4495   1.486       .  S
C4492      C4493   1.406       .  A
C4493      C4494   1.412       .  A
C4493     Br4501   1.932       .  S
C4494     Br4505   1.922       .  S
C4495      C4496   1.408       .  A
C4495      C4500   1.410       .  A
C4496      C4497   1.408       .  A
C4496     Br4507   1.930       .  S
C4497      C4498   1.413       .  A
C4497     Br4503   1.931       .  S
C4498      C4499   1.409       .  A
C4499      C4500   1.408       .  A
C4499     Br4508   1.929       .  S
C4500     Br4504   1.929       .  S
C4509      C4510   1.414       .  A
C4509      C4514   1.419       .  A
C4510      C4511   1.411       .  A
C4510     Br4522   1.924       .  S
C4511      C4512   1.410       .  A
C4511     Br4526   1.931       .  S
C4512      C4515   1.490       .  S
C4512      C4513   1.408       .  A
C4513      C4514   1.406       .  A
C4513     Br4521   1.933       .  S
C4514     Br4525   1.937       .  S
C4515      C4516   1.405       .  A
C4515      C4520   1.405       .  A
C4516      C4517   1.408       .  A
C4516     Br4527   1.935       .  S
C4517      C4518   1.421       .  A
C4517     Br4523   1.923       .  S
C4518      C4519   1.423       .  A
C4519      C4520   1.412       .  A
C4519     Br4528   1.922       .  S
C4520     Br4524   1.934       .  S
C4529      C4530   1.418       .  A
C4529      C4534   1.416       .  A
C4530      C4531   1.408       .  A
C4530     Br4542   1.933       .  S
C4531      C4532   1.406       .  A
C4531     Br4546   1.930       .  S
C4532      C4535   1.483       .  S
C4532      C4533   1.407       .  A
C4533      C4534   1.405       .  A
C4533     Br4541   1.933       .  S
C4534     Br4545   1.933       .  S
C4535      C4536   1.401       .  A
C4535      C4540   1.402       .  A
C4536      C4537   1.408       .  A
C4536     Br4547   1.933       .  S
C4537      C4538   1.425       .  A
C4537     Br4543   1.923       .  S
C4538      C4539   1.431       .  A
C4539      C4540   1.409       .  A
C4539     Br4548   1.935       .  S
C4540     Br4544   1.936       .  S
C4549      C4550   1.413       .  A
C4549      C4554   1.409       .  A
C4550      C4551   1.406       .  A
C4550     Br4562   1.929       .  S
C4551      C4552   1.408       .  A
C4551     Br4566   1.930       .  S
C4552      C4555   1.489       .  S
C4552      C4553   1.410       .  A
C4553      C4554   1.411       .  A
C4553     Br4561   1.928       .  S
C4554     Br4565   1.919       .  S
C4555      C4556   1.406       .  A
C4555      C4560   1.404       .  A
C4556      C4557   1.409       .  A
C4556     Br4567   1.936       .  S
C4557      C4558   1.422       .  A
C4557     Br4563   1.921       .  S
C4558      C4559   1.419       .  A
C4559      C4560   1.412       .  A
C4559     Br4568   1.919       .  S
C4560     Br4564   1.931       .  S
C4569      C4570   1.424       .  A
C4569      C4574   1.428       .  A
C4570      C4571   1.409       .  A
C4570     Br4582   1.930       .  S
C4571      C4572   1.406       .  A
C4571     Br4586   1.934       .  S
C4572      C4575   1.486       .  S
C4572      C4573   1.404       .  A
C4573      C4574   1.407       .  A
C4573     Br4581   1.933       .  S
C4574     Br4585   1.937       .  S
C4575      C4576   1.409       .  A
C4575      C4580   1.407       .  A
C4576      C4577   1.407       .  A
C4576     Br4587   1.933       .  S
C4577      C4578   1.415       .  A
C4577     Br4583   1.933       .  S
C4578      C4579   1.418       .  A
C4579      C4580   1.408       .  A
C4579     Br4588   1.933       .  S
C4580     Br4584   1.931       .  S
C4589      C4590   1.414       .  A
C4589      C4594   1.419       .  A
C4590      C4591   1.409       .  A
C4590     Br4602   1.927       .  S
C4591      C4592   1.409       .  A
C4591     Br4606   1.932       .  S
C4592      C4595   1.488       .  S
C4592      C4593   1.407       .  A
C4593      C4594   1.407       .  A
C4593     Br4601   1.932       .  S
C4594     Br4605   1.936       .  S
C4595      C4596   1.405       .  A
C4595      C4600   1.407       .  A
C4596      C4597   1.408       .  A
C4596     Br4607   1.934       .  S
C4597      C4598   1.425       .  A
C4597     Br4603   1.936       .  S
C4598      C4599   1.423       .  A
C4599      C4600   1.410       .  A
C4599     Br4608   1.934       .  S
C4600     Br4604   1.934       .  S
C4609      C4610   1.423       .  A
C4609      C4614   1.429       .  A
C4610      C4611   1.406       .  A
C4610     Br4622   1.932       .  S
C4611      C4612   1.404       .  A
C4611     Br4626   1.933       .  S
C4612      C4615   1.487       .  S
C4612      C4613   1.404       .  A
C4613      C4614   1.415       .  A
C4613     Br4621   1.932       .  S
C4614     Br4625   1.928       .  S
C4615      C4616   1.408       .  A
C4615      C4620   1.406       .  A
C4616      C4617   1.411       .  A
C4616     Br4627   1.929       .  S
C4617      C4618   1.414       .  A
C4617     Br4623   1.924       .  S
C4618      C4619   1.418       .  A
C4619      C4620   1.405       .  A
C4619     Br4628   1.933       .  S
C4620     Br4624   1.932       .  S
C4629      C4630   1.428       .  A
C4629      C4634   1.427       .  A
C4630      C4631   1.410       .  A
C4630     Br4642   1.936       .  S
C4631      C4632   1.405       .  A
C4631     Br4646   1.934       .  S
C4632      C4635   1.491       .  S
C4632      C4633   1.405       .  A
C4633      C4634   1.411       .  A
C4633     Br4641   1.932       .  S
C4634     Br4645   1.937       .  S
C4635      C4636   1.403       .  A
C4635      C4640   1.405       .  A
C4636      C4637   1.411       .  A
C4636     Br4647   1.934       .  S
C4637      C4638   1.430       .  A
C4637     Br4643   1.936       .  S
C4638      C4639   1.429       .  A
C4639      C4640   1.412       .  A
C4639     Br4648   1.935       .  S
C4640     Br4644   1.935       .  S
C4649      C4650   1.424       .  A
C4649      C4654   1.424       .  A
C4650      C4651   1.408       .  A
C4650     Br4662   1.923       .  S
C4651      C4652   1.404       .  A
C4651     Br4666   1.938       .  S
C4652      C4655   1.487       .  S
C4652      C4653   1.404       .  A
C4653      C4654   1.412       .  A
C4653     Br4661   1.932       .  S
C4654     Br4665   1.930       .  S
C4655      C4656   1.408       .  A
C4655      C4660   1.408       .  A
C4656      C4657   1.407       .  A
C4656     Br4667   1.931       .  S
C4657      C4658   1.414       .  A
C4657     Br4663   1.929       .  S
C4658      C4659   1.410       .  A
C4659      C4660   1.408       .  A
C4659     Br4668   1.919       .  S
C4660     Br4664   1.930       .  S
C4669      C4670   1.415       .  A
C4669      C4674   1.407       .  A
C4670      C4671   1.407       .  A
C4670     Br4682   1.933       .  S
C4671      C4672   1.408       .  A
C4671     Br4686   1.931       .  S
C4672      C4675   1.484       .  S
C4672      C4673   1.409       .  A
C4673      C4674   1.407       .  A
C4673     Br4681   1.928       .  S
C4674     Br4685   1.928       .  S
C4675      C4676   1.409       .  A
C4675      C4680   1.410       .  A
C4676      C4677   1.406       .  A
C4676     Br4687   1.930       .  S
C4677      C4678   1.410       .  A
C4677     Br4683   1.931       .  S
C4678      C4679   1.410       .  A
C4679      C4680   1.409       .  A
C4679     Br4688   1.929       .  S
C4680     Br4684   1.930       .  S
C4689      C4690   1.415       .  A
C4689      C4694   1.414       .  A
C4690      C4691   1.407       .  A
C4690     Br4702   1.934       .  S
C4691      C4692   1.408       .  A
C4691     Br4706   1.930       .  S
C4692      C4695   1.484       .  S
C4692      C4693   1.406       .  A
C4693      C4694   1.407       .  A
C4693     Br4701   1.930       .  S
C4694     Br4705   1.931       .  S
C4695      C4696   1.409       .  A
C4695      C4700   1.404       .  A
C4696      C4697   1.409       .  A
C4696     Br4707   1.932       .  S
C4697      C4698   1.413       .  A
C4697     Br4703   1.921       .  S
C4698      C4699   1.415       .  A
C4699      C4700   1.406       .  A
C4699     Br4708   1.927       .  S
C4700     Br4704   1.929       .  S
C4709      C4710   1.419       .  A
C4709      C4714   1.422       .  A
C4710      C4711   1.415       .  A
C4710     Br4722   1.925       .  S
C4711      C4712   1.411       .  A
C4711     Br4726   1.930       .  S
C4712      C4715   1.494       .  S
C4712      C4713   1.406       .  A
C4713      C4714   1.404       .  A
C4713     Br4721   1.932       .  S
C4714     Br4725   1.937       .  S
C4715      C4716   1.407       .  A
C4715      C4720   1.405       .  A
C4716      C4717   1.415       .  A
C4716     Br4727   1.935       .  S
C4717      C4718   1.426       .  A
C4717     Br4723   1.926       .  S
C4718      C4719   1.427       .  A
C4719      C4720   1.410       .  A
C4719     Br4728   1.931       .  S
C4720     Br4724   1.937       .  S
C4729      C4730   1.411       .  A
C4729      C4734   1.416       .  A
C4730      C4731   1.410       .  A
C4730     Br4742   1.919       .  S
C4731      C4732   1.409       .  A
C4731     Br4746   1.931       .  S
C4732      C4735   1.493       .  S
C4732      C4733   1.409       .  A
C4733      C4734   1.412       .  A
C4733     Br4741   1.929       .  S
C4734     Br4745   1.931       .  S
C4735      C4736   1.404       .  A
C4735      C4740   1.405       .  A
C4736      C4737   1.411       .  A
C4736     Br4747   1.934       .  S
C4737      C4738   1.425       .  A
C4737     Br4743   1.927       .  S
C4738      C4739   1.427       .  A
C4739      C4740   1.415       .  A
C4739     Br4748   1.926       .  S
C4740     Br4744   1.933       .  S
C4749      C4750   1.431       .  A
C4749      C4754   1.430       .  A
C4750      C4751   1.410       .  A
C4750     Br4762   1.938       .  S
C4751      C4752   1.404       .  A
C4751     Br4766   1.935       .  S
C4752      C4755   1.490       .  S
C4752      C4753   1.404       .  A
C4753      C4754   1.411       .  A
C4753     Br4761   1.933       .  S
C4754     Br4765   1.937       .  S
C4755      C4756   1.411       .  A
C4755      C4760   1.410       .  A
C4756      C4757   1.407       .  A
C4756     Br4767   1.931       .  S
C4757      C4758   1.409       .  A
C4757     Br4763   1.929       .  S
C4758      C4759   1.410       .  A
C4759      C4760   1.411       .  A
C4759     Br4768   1.928       .  S
C4760     Br4764   1.927       .  S
C4769      C4770   1.414       .  A
C4769      C4774   1.419       .  A
C4770      C4771   1.412       .  A
C4770     Br4782   1.924       .  S
C4771      C4772   1.413       .  A
C4771     Br4786   1.930       .  S
C4772      C4775   1.494       .  S
C4772      C4773   1.410       .  A
C4773      C4774   1.402       .  A
C4773     Br4781   1.936       .  S
C4774     Br4785   1.938       .  S
C4775      C4776   1.405       .  A
C4775      C4780   1.410       .  A
C4776      C4777   1.402       .  A
C4776     Br4787   1.935       .  S
C4777      C4778   1.424       .  A
C4777     Br4783   1.935       .  S
C4778      C4779   1.427       .  A
C4779      C4780   1.415       .  A
C4779     Br4788   1.928       .  S
C4780     Br4784   1.933       .  S
C4789      C4790   1.431       .  A
C4789      C4794   1.432       .  A
C4790      C4791   1.401       .  A
C4790     Br4802   1.942       .  S
C4791      C4792   1.399       .  A
C4791     Br4806   1.935       .  S
C4792      C4795   1.486       .  S
C4792      C4793   1.404       .  A
C4793      C4794   1.415       .  A
C4793     Br4801   1.936       .  S
C4794     Br4805   1.928       .  S
C4795      C4796   1.405       .  A
C4795      C4800   1.404       .  A
C4796      C4797   1.401       .  A
C4796     Br4807   1.940       .  S
C4797      C4798   1.425       .  A
C4797     Br4803   1.936       .  S
C4798      C4799   1.426       .  A
C4799      C4800   1.415       .  A
C4799     Br4808   1.926       .  S
C4800     Br4804   1.932       .  S
C4809      C4810   1.423       .  A
C4809      C4814   1.420       .  A
C4810      C4811   1.413       .  A
C4810     Br4822   1.934       .  S
C4811      C4812   1.408       .  A
C4811     Br4826   1.932       .  S
C4812      C4815   1.494       .  S
C4812      C4813   1.408       .  A
C4813      C4814   1.411       .  A
C4813     Br4821   1.934       .  S
C4814     Br4825   1.931       .  S
C4815      C4816   1.411       .  A
C4815      C4820   1.409       .  A
C4816      C4817   1.412       .  A
C4816     Br4827   1.930       .  S
C4817      C4818   1.412       .  A
C4817     Br4823   1.924       .  S
C4818      C4819   1.414       .  A
C4819      C4820   1.409       .  A
C4819     Br4828   1.926       .  S
C4820     Br4824   1.931       .  S
C4829      C4830   1.422       .  A
C4829      C4834   1.426       .  A
C4830      C4831   1.408       .  A
C4830     Br4842   1.931       .  S
C4831      C4832   1.404       .  A
C4831     Br4846   1.931       .  S
C4832      C4835   1.477       .  S
C4832      C4833   1.402       .  A
C4833      C4834   1.403       .  A
C4833     Br4841   1.933       .  S
C4834     Br4845   1.939       .  S
C4835      C4836   1.406       .  A
C4835      C4840   1.407       .  A
C4836      C4837   1.404       .  A
C4836     Br4847   1.931       .  S
C4837      C4838   1.414       .  A
C4837     Br4843   1.933       .  S
C4838      C4839   1.413       .  A
C4839      C4840   1.405       .  A
C4839     Br4848   1.932       .  S
C4840     Br4844   1.931       .  S
C4849      C4850   1.418       .  A
C4849      C4854   1.423       .  A
C4850      C4851   1.405       .  A
C4850     Br4862   1.931       .  S
C4851      C4852   1.405       .  A
C4851     Br4866   1.933       .  S
C4852      C4855   1.485       .  S
C4852      C4853   1.405       .  A
C4853      C4854   1.412       .  A
C4853     Br4861   1.932       .  S
C4854     Br4865   1.924       .  S
C4855      C4856   1.406       .  A
C4855      C4860   1.406       .  A
C4856      C4857   1.411       .  A
C4856     Br4867   1.931       .  S
C4857      C4858   1.420       .  A
C4857     Br4863   1.923       .  S
C4858      C4859   1.418       .  A
C4859      C4860   1.405       .  A
C4859     Br4868   1.935       .  S
C4860     Br4864   1.932       .  S
C4869      C4870   1.430       .  A
C4869      C4874   1.431       .  A
C4870      C4871   1.411       .  A
C4870     Br4882   1.936       .  S
C4871      C4872   1.404       .  A
C4871     Br4886   1.933       .  S
C4872      C4875   1.489       .  S
C4872      C4873   1.402       .  A
C4873      C4874   1.411       .  A
C4873     Br4881   1.937       .  S
C4874     Br4885   1.922       .  S
C4875      C4876   1.412       .  A
C4875      C4880   1.410       .  A
C4876      C4877   1.407       .  A
C4876     Br4887   1.930       .  S
C4877      C4878   1.408       .  A
C4877     Br4883   1.930       .  S
C4878      C4879   1.409       .  A
C4879      C4880   1.409       .  A
C4879     Br4888   1.928       .  S
C4880     Br4884   1.928       .  S
C4889      C4890   1.412       .  A
C4889      C4894   1.417       .  A
C4890      C4891   1.413       .  A
C4890     Br4902   1.926       .  S
C4891      C4892   1.410       .  A
C4891     Br4906   1.928       .  S
C4892      C4895   1.496       .  S
C4892      C4893   1.410       .  A
C4893      C4894   1.411       .  A
C4893     Br4901   1.931       .  S
C4894     Br4905   1.934       .  S
C4895      C4896   1.409       .  A
C4895      C4900   1.406       .  A
C4896      C4897   1.416       .  A
C4896     Br4907   1.930       .  S
C4897      C4898   1.419       .  A
C4897     Br4903   1.924       .  S
C4898      C4899   1.422       .  A
C4899      C4900   1.410       .  A
C4899     Br4908   1.935       .  S
C4900     Br4904   1.931       .  S
C4909      C4910   1.416       .  A
C4909      C4914   1.414       .  A
C4910      C4911   1.408       .  A
C4910     Br4922   1.920       .  S
C4911      C4912   1.407       .  A
C4911     Br4926   1.933       .  S
C4912      C4915   1.478       .  S
C4912      C4913   1.404       .  A
C4913      C4914   1.401       .  A
C4913     Br4921   1.932       .  S
C4914     Br4925   1.925       .  S
C4915      C4916   1.406       .  A
C4915      C4920   1.407       .  A
C4916      C4917   1.404       .  A
C4916     Br4927   1.934       .  S
C4917      C4918   1.419       .  A
C4917     Br4923   1.936       .  S
C4918      C4919   1.418       .  A
C4919      C4920   1.406       .  A
C4919     Br4928   1.933       .  S
C4920     Br4924   1.932       .  S
C4929      C4930   1.410       .  A
C4929      C4934   1.413       .  A
C4930      C4931   1.412       .  A
C4930     Br4942   1.929       .  S
C4931      C4932   1.411       .  A
C4931     Br4946   1.927       .  S
C4932      C4935   1.494       .  S
C4932      C4933   1.411       .  A
C4933      C4934   1.409       .  A
C4933     Br4941   1.929       .  S
C4934     Br4945   1.934       .  S
C4935      C4936   1.406       .  A
C4935      C4940   1.408       .  A
C4936      C4937   1.411       .  A
C4936     Br4947   1.932       .  S
C4937      C4938   1.423       .  A
C4937     Br4943   1.936       .  S
C4938      C4939   1.419       .  A
C4939      C4940   1.414       .  A
C4939     Br4948   1.925       .  S
C4940     Br4944   1.931       .  S
C4949      C4950   1.429       .  A
C4949      C4954   1.433       .  A
C4950      C4951   1.409       .  A
C4950     Br4962   1.930       .  S
C4951      C4952   1.404       .  A
C4951     Br4966   1.936       .  S
C4952      C4955   1.492       .  S
C4952      C4953   1.404       .  A
C4953      C4954   1.413       .  A
C4953     Br4961   1.935       .  S
C4954     Br4965   1.939       .  S
C4955      C4956   1.403       .  A
C4955      C4960   1.407       .  A
C4956      C4957   1.401       .  A
C4956     Br4967   1.934       .  S
C4957      C4958   1.424       .  A
C4957     Br4963   1.936       .  S
C4958      C4959   1.431       .  A
C4959      C4960   1.419       .  A
C4959     Br4968   1.927       .  S
C4960     Br4964   1.933       .  S
C4969      C4970   1.427       .  A
C4969      C4974   1.429       .  A
C4970      C4971   1.418       .  A
C4970     Br4982   1.926       .  S
C4971      C4972   1.406       .  A
C4971     Br4986   1.931       .  S
C4972      C4975   1.493       .  S
C4972      C4973   1.402       .  A
C4973      C4974   1.408       .  A
C4973     Br4981   1.936       .  S
C4974     Br4985   1.935       .  S
C4975      C4976   1.410       .  A
C4975      C4980   1.408       .  A
C4976      C4977   1.413       .  A
C4976     Br4987   1.930       .  S
C4977      C4978   1.416       .  A
C4977     Br4983   1.930       .  S
C4978      C4979   1.415       .  A
C4979      C4980   1.409       .  A
C4979     Br4988   1.932       .  S
C4980     Br4984   1.930       .  S
C4989      C4990   1.425       .  A
C4989      C4994   1.421       .  A
C4990      C4991   1.415       .  A
C4990     Br5002   1.934       .  S
C4991      C4992   1.408       .  A
C4991     Br5006   1.932       .  S
C4992      C4995   1.500       .  S
C4992      C4993   1.409       .  A
C4993      C4994   1.413       .  A
C4993     Br5001   1.933       .  S
C4994     Br5005   1.933       .  S
C4995      C4996   1.410       .  A
C4995      C5000   1.407       .  A
C4996      C4997   1.416       .  A
C4996     Br5007   1.931       .  S
C4997      C4998   1.419       .  A
C4997     Br5003   1.918       .  S
C4998      C4999   1.417       .  A
C4999      C5000   1.411       .  A
C4999     Br5008   1.919       .  S
C5000     Br5004   1.932       .  S
C5009      C5010   1.422       .  A
C5009      C5014   1.420       .  A
C5010      C5011   1.408       .  A
C5010     Br5022   1.931       .  S
C5011      C5012   1.406       .  A
C5011     Br5026   1.933       .  S
C5012      C5015   1.490       .  S
C5012      C5013   1.408       .  A
C5013      C5014   1.412       .  A
C5013     Br5021   1.932       .  S
C5014     Br5025   1.926       .  S
C5015      C5016   1.409       .  A
C5015      C5020   1.411       .  A
C5016      C5017   1.406       .  A
C5016     Br5027   1.933       .  S
C5017      C5018   1.416       .  A
C5017     Br5023   1.936       .  S
C5018      C5019   1.409       .  A
C5019      C5020   1.411       .  A
C5019     Br5028   1.926       .  S
C5020     Br5024   1.928       .  S
C5029      C5030   1.413       .  A
C5029      C5034   1.413       .  A
C5030      C5031   1.406       .  A
C5030     Br5042   1.923       .  S
C5031      C5032   1.407       .  A
C5031     Br5046   1.933       .  S
C5032      C5035   1.487       .  S
C5032      C5033   1.410       .  A
C5033      C5034   1.412       .  A
C5033     Br5041   1.928       .  S
C5034     Br5045   1.928       .  S
C5035      C5036   1.407       .  A
C5035      C5040   1.405       .  A
C5036      C5037   1.412       .  A
C5036     Br5047   1.930       .  S
C5037      C5038   1.416       .  A
C5037     Br5043   1.922       .  S
C5038      C5039   1.417       .  A
C5039      C5040   1.407       .  A
C5039     Br5048   1.926       .  S
C5040     Br5044   1.932       .  S
C5049      C5050   1.417       .  A
C5049      C5054   1.416       .  A
C5050      C5051   1.415       .  A
C5050     Br5062   1.922       .  S
C5051      C5052   1.409       .  A
C5051     Br5066   1.930       .  S
C5052      C5055   1.489       .  S
C5052      C5053   1.406       .  A
C5053      C5054   1.404       .  A
C5053     Br5061   1.934       .  S
C5054     Br5065   1.925       .  S
C5055      C5056   1.408       .  A
C5055      C5060   1.408       .  A
C5056      C5057   1.410       .  A
C5056     Br5067   1.931       .  S
C5057      C5058   1.415       .  A
C5057     Br5063   1.924       .  S
C5058      C5059   1.419       .  A
C5059      C5060   1.408       .  A
C5059     Br5068   1.936       .  S
C5060     Br5064   1.931       .  S
C5069      C5070   1.426       .  A
C5069      C5074   1.421       .  A
C5070      C5071   1.407       .  A
C5070     Br5082   1.934       .  S
C5071      C5072   1.405       .  A
C5071     Br5086   1.933       .  S
C5072      C5075   1.484       .  S
C5072      C5073   1.404       .  A
C5073      C5074   1.408       .  A
C5073     Br5081   1.931       .  S
C5074     Br5085   1.922       .  S
C5075      C5076   1.406       .  A
C5075      C5080   1.406       .  A
C5076      C5077   1.409       .  A
C5076     Br5087   1.932       .  S
C5077      C5078   1.420       .  A
C5077     Br5083   1.929       .  S
C5078      C5079   1.418       .  A
C5079      C5080   1.407       .  A
C5079     Br5088   1.934   1_455  S
C5080     Br5084   1.931       .  S
