geometry optimzed in LAMMPS
_audit_creation_date              2020-11-30 
_audit_creation_method            'lammps2cif' 
_symmetry_space_group_name_H-M    'P1' 
_symmetry_Int_Tables_number       1 
_symmetry_cell_setting            triclinic 
loop_ 
_symmetry_equiv_pos_as_xyz 
  x,y,z 
_cell_length_a                    40.93979209 
_cell_length_b                    27.402203738238544 
_cell_length_c                    55.34736588589055 
_cell_angle_alpha                 91.17560720796561 
_cell_angle_beta                  91.50076006282664 
_cell_angle_gamma                 118.59520376544157 
loop_ 
_atom_site_label 
_atom_site_type_symbol 
_atom_site_fract_x 
_atom_site_fract_y 
_atom_site_fract_z 
_atom_site_charge 
C1          C  0.23004690  0.17656289  0.53464317     0.45000
H2          H  0.22838276  0.17793949  0.51463679    -0.04000
C3          C  0.23324925  0.17379856  0.58146843     0.45100
H4          H  0.23413518  0.17202575  0.60152038    -0.04000
C5          C  0.27058413  0.20094519  0.54563804    -0.17700
C6          C  0.21297764  0.20968640  0.54780327    -0.17500
C7          C  0.20912920  0.11641997  0.54425191    -0.17800
C8          C  0.27155900  0.19909396  0.57052469    -0.17800
C9          C  0.21517755  0.20789176  0.57256664    -0.17400
C10         C  0.21106125  0.11628336  0.56909322    -0.17700
C11         C  0.11437333  0.33212483  0.45924462     0.45000
H12         H  0.11471687  0.32854245  0.43921141    -0.04000
C13         C  0.11333026  0.34083015  0.50594802     0.45100
H14         H  0.11302411  0.34419476  0.52595073    -0.04000
C15         C  0.13270687  0.30242990  0.47260049    -0.17700
C16         C  0.13495240  0.39236707  0.46877160    -0.17500
C17         C  0.07490092  0.30798195  0.46850237    -0.17800
C18         C  0.13156557  0.30527172  0.49732510    -0.17800
C19         C  0.13445583  0.39829270  0.49355984    -0.17400
C20         C  0.07381844  0.31220725  0.49328146    -0.17700
O21         O  0.05990588  0.20178213  0.71102199    -0.81300
O22         O  0.13758310  0.40340052  0.64005254    -0.66000
O23         O  0.11030136  0.30197562  0.69135619    -1.12600
C24         C  0.06176331  0.40750254  0.72694657     1.05600
O25         O  0.14818686  0.47905414  0.66194326    -0.79200
O26         O  0.15754365  0.44989756  0.70814670    -0.66800
Ni27       Ni  0.08696845  0.22445862  0.68174791     1.34900
C28         C  0.15097474  0.41826205  0.72591440     0.84300
O29         O  0.15453125  0.32443707  0.65134153    -0.79800
O30         O  0.11297236  0.23482546  0.65206044    -0.90000
C31         C  0.14789256  0.45490934  0.64201711     0.83900
O32         O  0.04731531  0.22865609  0.66467106    -0.68300
O33         O  0.09198462  0.44571171  0.71932652    -0.87500
C34         C  0.05226096  0.25914779  0.64661324     0.84700
C35         C  0.14186872  0.27448227  0.64369899     1.06300
H36         H  0.07283629  0.37208880  0.67009732     0.38100
O37         O  0.09419482  0.37939257  0.68043615    -1.10200
O38         O  0.12001503  0.37464637  0.72820137    -0.66800
Ni39       Ni  0.07905585  0.32838432  0.70597034     1.26300
O40         O  0.08251910  0.30417661  0.64425305    -0.67100
O41         O  0.04895043  0.35700762  0.71986284    -0.79400
C42         C  0.05580536  0.22563049  0.72975157     0.84100
O43         O  0.06396729  0.27635576  0.73092844    -0.66500
Ni44       Ni  0.11934198  0.45650457  0.69042052     1.27400
Ni45       Ni  0.12444957  0.35233850  0.66550672     1.26100
H46         H  0.13192561  0.31064983  0.70168907     0.38600
C47         C  0.30510258  0.00431402  0.83722596     0.45000
H48         H  0.30512168  0.00482244  0.85728332    -0.04000
C49         C  0.30536097  0.00406709  0.79033253     0.45100
H50         H  0.30559010  0.00493525  0.77026048    -0.04000
C51         C  0.26492761  0.47519679  0.82469003    -0.17700
C52         C  0.32554204  0.06378185  0.82687241    -0.17500
C53         C  0.32435719  0.47194009  0.82628210    -0.17800
C54         C  0.26572707  0.47454319  0.79985490    -0.17800
C55         C  0.32438520  0.06245464  0.80212088    -0.17400
C56         C  0.99140890  0.47470133  0.80040846    -0.17700
C57         C  0.08507214  0.33903505  0.86710659     0.45000
H58         H  0.08173128  0.33674054  0.84709836    -0.04000
C59         C  0.09297060  0.34526437  0.91391365     0.45100
H60         H  0.09609690  0.34876433  0.93397023    -0.04000
C61         C  0.06884860  0.28078299  0.87897009    -0.17700
C62         C  0.12647805  0.37142135  0.87646065    -0.17500
C63         C  0.06556372  0.36933314  0.87952536    -0.17800
C64         C  0.07467621  0.28527395  0.90385231    -0.17800
C65         C  0.13005435  0.37491969  0.90126691    -0.17400
C66         C  0.06848368  0.36938310  0.90434936    -0.17700
C67         C  0.24209213  0.17350186  0.12478627     0.45000
H68         H  0.24431918  0.17775106  0.10512527    -0.04000
C69         C  0.24281154  0.17371398  0.17163006     0.45100
H70         H  0.24305391  0.17329738  0.19168205    -0.04000
C71         C  0.20257158  0.14206067  0.13373589    -0.17700
C72         C  0.26255252  0.14440328  0.13568480    -0.17500
C73         C  0.25965517  0.23155284  0.13667283    -0.17800
C74         C  0.20280168  0.14211090  0.15907668    -0.17800
C75         C  0.26444310  0.14544260  0.16042623    -0.17400
C76         C  0.26066439  0.23339035  0.16146906    -0.17700
C77         C  0.02859770  0.01073218  0.20190349     0.45000
H78         H  0.02878715  0.00868464  0.18188383    -0.04000
C79         C  0.02910937  0.01802053  0.24877459     0.45100
H80         H  0.02934053  0.52090865  0.26866401    -0.04000
C81         C  0.06828255  0.03837481  0.21417454    -0.17700
C82         C  0.01087434  0.04624171  0.21130176    -0.17500
C83         C  0.00622374  0.45183221  0.21381785    -0.17800
C84         C  0.06808290  0.04053257  0.23887282    -0.17800
C85         C  0.01131891  0.04951478  0.23608523    -0.17400
C86         C  0.00632169  0.45715442  0.23875463    -0.17700
O87         O  0.18782794  0.03050544  0.37187423    -0.81300
O88         O  0.27576191  0.24643060  0.31138228    -0.66000
O89         O  0.24479078  0.13343377  0.35728607    -1.12600
C90         C  0.19927898  0.23113602  0.40071831     1.05600
O91         O  0.28211488  0.31726677  0.33500254    -0.79200
O92         O  0.29411142  0.27847378  0.37774743    -0.66800
Ni93       Ni  0.21905620  0.05846294  0.34430220     1.34900
C94         C  0.28949412  0.24604498  0.39489634     0.84300
O95         O  0.29037455  0.16554873  0.31857112    -0.79800
O96         O  0.24858707  0.07562052  0.31579198    -0.90000
C97         C  0.28587685  0.29730367  0.31492355     0.83900
O98         O  0.18167470  0.06842021  0.32715988    -0.68300
O99         O  0.22927964  0.27198470  0.39407561    -0.87500
C100        C  0.18791685  0.10434293  0.31122913     0.84700
C101        C  0.27818865  0.11741485  0.30915953     1.06300
H102        H  0.20820740  0.20800840  0.34142027     0.38100
O103        O  0.22982703  0.21387064  0.35110820    -1.10200
O104        O  0.25865421  0.20136650  0.39694126    -0.66800
Ni105      Ni  0.21571083  0.15828428  0.37468233     1.26300
O106        O  0.21885645  0.14907228  0.31079801    -0.67100
O107        O  0.18617867  0.18316002  0.39096664    -0.79400
C108        C  0.18722609  0.05045177  0.39279203     0.84100
O109        O  0.20134607  0.10198289  0.39751148    -0.66500
Ni110      Ni  0.25496601  0.28886429  0.36391770     1.27400
Ni111      Ni  0.26012126  0.18993957  0.33416542     1.26100
H112        H  0.26616409  0.13824960  0.36699935     0.38600
O113        O  0.03456875  0.14604306  0.00032272    -0.81300
O114        O  0.32091227  0.43396557  0.06301353    -0.66000
O115        O  0.02883269  0.04530959  0.01609937    -1.12600
C116        C  0.25147531  0.44778492  0.97151322     1.05600
O117        O  0.27892083  0.36258248  0.03981054    -0.79200
O118        O  0.31494185  0.39708549  0.99621391    -0.66800
Ni119      Ni  0.05367454  0.12168445  0.02709030     1.34900
C120        C  0.99966647  0.43256962  0.98021052     0.84300
O121        O  0.05541056  0.01542435  0.05658154    -0.79800
O122        O  0.07703793  0.10732731  0.05485870    -0.90000
C123        C  0.29667792  0.38352425  0.05986457     0.83900
O124        O  0.01438264  0.11648137  0.04605813    -0.68300
O125        O  0.25502448  0.40676122  0.97882615    -0.87500
C126        C  0.33197574  0.08138509  0.06214349     0.84700
C127        C  0.07751920  0.06514007  0.06373191     1.06300
H128        H  0.27851324  0.47362724  0.03143668     0.38100
O129        O  0.29554439  0.46638191  0.02219983    -1.10200
O130        O  0.99766993  0.47721136  0.97762781    -0.66800
Ni131      Ni  0.31669392  0.02018522  0.99814386     1.26300
O132        O  0.33020756  0.03377879  0.06201041    -0.67100
O133        O  0.27078901  0.49620918  0.98075166    -0.79400
C134        C  0.02323953  0.12563188  0.97896630     0.84100
O135        O  0.00523876  0.07410606  0.97439245    -0.66500
Ni136      Ni  0.27046524  0.39060924  0.00979357     1.27400
Ni137      Ni  0.00955101  0.49196122  0.04009047     1.26100
H138        H  0.04636415  0.03898525  0.00704068     0.38600
C139        C  0.15916333  0.09124297  0.29150720    -0.06600
C140        C  0.14090366  0.03673427  0.28152306    -0.17700
C141        C  0.11291067  0.02058370  0.26325641     0.10600
C142        C  0.10156297  0.05890710  0.25531297    -0.06500
C143        C  0.12026774  0.11380728  0.26472998    -0.17700
C144        C  0.14955946  0.13071319  0.28220345     0.10700
S145        S  0.09119645  0.44959021  0.25022297    -0.32700
S146        S  0.17229405  0.20226606  0.29277127    -0.32700
H147        H  0.20664103  0.21297161  0.28342223     0.28700
H148        H  0.11651433  0.43449486  0.26082674     0.28700
H149        H  0.14895065  0.00679290  0.28794180     0.19300
H150        H  0.11191628  0.14358236  0.25850936     0.19300
C151        C  0.32159787  0.40979943  0.25610434    -0.06600
C152        C  0.33182565  0.36758226  0.25680071    -0.17700
C153        C  0.32181747  0.33079132  0.27600726     0.10600
C154        C  0.29991389  0.33497459  0.29452397    -0.06500
C155        C  0.28800413  0.37460312  0.29290985    -0.17700
C156        C  0.29829543  0.41139531  0.27419763     0.10700
S157        S  0.00561055  0.28130036  0.27539555    -0.32700
S158        S  0.27777493  0.45594927  0.27325670    -0.32700
H159        H  0.27103180  0.45633558  0.29804194     0.28700
H160        H  0.34548388  0.28539045  0.30183752     0.28700
H161        H  0.01572102  0.36540697  0.24243916     0.19300
H162        H  0.26935788  0.37574626  0.30618099     0.19300
C163        C  0.32796574  0.07699067  0.25092677    -0.06600
C164        C  0.35082110  0.11220931  0.27008931    -0.17700
C165        C  0.33585278  0.12808887  0.28914974     0.10600
C166        C  0.29727330  0.10975500  0.28863060    -0.06500
C167        C  0.27535284  0.08106110  0.26808683    -0.17700
C168        C  0.28979841  0.06360000  0.24934896     0.10700
S169        S  0.03517616  0.17276375  0.31314356    -0.32700
S170        S  0.25546392  0.01591282  0.22728854    -0.32700
H171        H  0.27195638  0.98184735  0.22371241     0.28700
H172        H  0.34168042  0.13933289  0.33230927     0.28700
H173        H  0.04793947  0.12692930  0.27040352     0.19300
H174        H  0.24584863  0.06844662  0.26748090     0.19300
C175        C  0.28893104  0.34758938  0.08058853    -0.06600
C176        C  0.25700240  0.33458972  0.09363959    -0.17700
C177        C  0.24858162  0.30066204  0.11371324     0.10600
C178        C  0.27255393  0.27958142  0.12075951    -0.06500
C179        C  0.30514914  0.29453106  0.10824227    -0.17700
C180        C  0.31365385  0.32831342  0.08831281     0.10700
S181        S  0.20640912  0.28194733  0.12954357    -0.32700
S182        S  0.35580169  0.34378066  0.07309962    -0.32700
H183        H  0.01615662  0.36073113  0.05298797     0.28700
H184        H  0.19563286  0.31629261  0.11689792     0.28700
H185        H  0.23850590  0.35045369  0.08785954     0.19300
H186        H  0.32342640  0.27802933  0.11344377     0.19300
C187        C  0.10584132  0.07549649  0.08283082    -0.06600
C188        C  0.13783561  0.07429871  0.07620589    -0.17700
C189        C  0.16928340  0.09408486  0.09189742     0.10600
C190        C  0.16902673  0.11616983  0.11575936    -0.06500
C191        C  0.13603391  0.11707201  0.12170667    -0.17700
C192        C  0.10439461  0.09531063  0.10613756     0.10700
S193        S  0.20853612  0.09346949  0.07820776    -0.32700
S194        S  0.06303847  0.09459659  0.11698252    -0.32700
H195        H  0.03794376  0.04684429  0.10325379     0.28700
H196        H  0.18808140  0.04511552  0.06343527     0.28700
H197        H  0.13890733  0.06059449  0.05785968     0.19300
H198        H  0.13480534  0.13768966  0.13789669     0.19300
C199        C  0.31602548  0.09670290  0.08244424    -0.06600
C200        C  0.28238831  0.05584425  0.09109200    -0.17700
C201        C  0.26441650  0.06838756  0.10929333     0.10600
C202        C  0.28160467  0.12312884  0.11984875    -0.06500
C203        C  0.31666558  0.16237064  0.11261085    -0.17700
C204        C  0.33387580  0.15032848  0.09382878     0.10700
S205        S  0.21881518  0.01292797  0.11618179    -0.32700
S206        S  0.04492972  0.20562120  0.08533094    -0.32700
H207        H  0.06090305  0.17106050  0.08136802     0.28700
H208        H  0.20698350  0.04565434  0.12902735     0.28700
H209        H  0.26895328  0.01440139  0.08267874     0.19300
H210        H  0.33037380  0.20338185  0.12131546     0.19300
C211        C  0.28564698  0.12149759  0.17410973    -0.06600
C212        C  0.27675529  0.06598770  0.16905562    -0.17700
C213        C  0.29786126  0.04217674  0.17844688     0.10600
C214        C  0.32702358  0.07281277  0.19571976    -0.06500
C215        C  0.33597710  0.12854570  0.20113309    -0.17700
C216        C  0.31645043  0.15329481  0.19010699     0.10700
S217        S  0.28399946  0.97050744  0.17029026    -0.32700
S218        S  0.33287783  0.22586952  0.19658119    -0.32700
H219        H  0.33262463  0.23710240  0.17193462     0.28700
H220        H  0.25666508  0.46319085  0.15230526     0.28700
H221        H  0.25230839  0.04034741  0.15819540     0.19300
H222        H  0.35818725  0.15302383  0.21432819     0.13900
C223        C  0.16899040  0.11490741  0.17392327    -0.06600
C224        C  0.15081785  0.14511415  0.18064544    -0.17700
C225        C  0.11829255  0.12115583  0.19381927     0.10600
C226        C  0.10337489  0.06553239  0.20068759    -0.06500
C227        C  0.12323908  0.03680911  0.19584124    -0.17700
C228        C  0.15588262  0.06092428  0.18261600     0.10700
S229        S  0.09667494  0.16250210  0.20234757    -0.32700
S230        S  0.18086409  0.02287743  0.17735551    -0.32700
H231        H  0.15871261  0.97690335  0.19119160     0.28700
H232        H  0.12242480  0.21210580  0.19200773     0.28700
H233        H  0.16123232  0.18692989  0.17443064     0.19300
H234        H  0.11310826  0.99538304  0.20238448     0.19300
C235        C  0.28044709  0.28790249  0.17610768    -0.06600
C236        C  0.31644798  0.32721671  0.16970485    -0.17700
C237        C  0.33605394  0.38028779  0.18117146     0.10600
C238        C  0.31959229  0.39586415  0.19988381    -0.06500
C239        C  0.28344762  0.35678139  0.20620353    -0.17700
C240        C  0.26432886  0.30300919  0.19516964     0.10700
S241        S  0.38256238  0.42605661  0.17202332    -0.32700
S242        S  0.21933706  0.25514982  0.20567568    -0.32700
H243        H  0.21903391  0.28804718  0.22542541     0.28700
H244        H  0.04794359  0.39563368  0.15111954     0.28700
H245        H  0.32975360  0.31571992  0.15579907     0.19300
H246        H  0.26997514  0.36858782  0.21993810     0.19300
C247        C  0.22455208  0.43811396  0.95125112    -0.06600
C248        C  0.22222202  0.40268538  0.93185151    -0.17700
C249        C  0.19319147  0.38372139  0.91427722     0.10600
C250        C  0.16593961  0.40155795  0.91580638    -0.06500
C251        C  0.17049610  0.44126338  0.93385613    -0.17700
C252        C  0.19924676  0.45948450  0.95161816     0.10700
S253        S  0.18956546  0.32986101  0.89332447    -0.32700
S254        S  0.19784151  0.00154410  0.97685627    -0.32700
H255        H  0.20436932  0.97220541  0.99524937     0.28700
H256        H  0.15065574  0.29817133  0.89324208     0.28700
H257        H  0.24184332  0.38669867  0.93125719     0.19300
H258        H  0.15011872  0.45571090  0.93496924     0.19300
C259        C  0.06251052  0.23877672  0.92108799    -0.06600
C260        C  0.02564913  0.19484607  0.91958743    -0.17700
C261        C  0.01118601  0.15738694  0.93829792     0.10600
C262        C  0.03416422  0.16367954  0.95890705    -0.06500
C263        C  0.07103332  0.20530057  0.95985148    -0.17700
C264        C  0.08554928  0.24204204  0.94133887     0.10700
S265        S  0.29628233  0.10526466  0.93583677    -0.32700
S266        S  0.13454301  0.28889635  0.94395034    -0.32700
H267        H  0.13827972  0.29109405  0.96935785     0.28700
H268        H  0.28996043  0.10586138  0.96067226     0.28700
H269        H  0.00728245  0.19124055  0.90444074     0.19300
H270        H  0.08920984  0.20776899  0.97497454     0.19300
C271        C  0.01915415  0.41730942  0.96165959    -0.06600
C272        C  0.00094809  0.36302087  0.95164027    -0.17700
C273        C  0.01493257  0.34727008  0.93190343     0.10600
C274        C  0.04852031  0.38658539  0.92177028    -0.06500
C275        C  0.06691678  0.44089264  0.93179638    -0.17700
C276        C  0.05269755  0.45656621  0.95153519     0.10700
S277        S  0.32210845  0.27513591  0.92157548    -0.32700
S278        S  0.08007993  0.52585476  0.96424142    -0.32700
H279        H  0.08044016  0.50637672  0.98752164     0.28700
H280        H  0.00387666  0.28131201  0.89842807     0.28700
H281        H  0.30891333  0.33162073  0.95929090     0.19300
H282        H  0.09329469  0.47072073  0.92478812     0.19300
C283        C  0.00972160  0.44749336  0.84019588    -0.06600
C284        C  0.04669398  0.46120527  0.83579084    -0.17700
C285        C  0.06529942  0.43750198  0.84854958     0.10600
C286        C  0.04674797  0.39708336  0.86592534    -0.06500
C287        C  0.00965253  0.38333588  0.87034612    -0.17700
C288        C  0.99112492  0.40803575  0.85786801     0.10700
S289        S  0.11371750  0.46440737  0.84302613    -0.32700
S290        S  0.27667723  0.38468534  0.86459457    -0.32700
H291        H  0.27265261  0.34657155  0.88243185     0.28700
H292        H  0.12365425  0.47223045  0.86787346     0.28700
H293        H  0.06173833  0.49195966  0.82262137     0.19300
H294        H  0.99466516  0.35211931  0.88317477     0.19300
C295        C  0.04915598  0.22569914  0.86500706    -0.06600
C296        C  0.05974977  0.18458193  0.86928501    -0.17700
C297        C  0.04121981  0.13168467  0.85754480     0.10600
C298        C  0.01072215  0.11806685  0.84120273    -0.06500
C299        C  0.00010455  0.15908140  0.83704840    -0.17700
C300        C  0.01893943  0.21235175  0.84842026     0.10700
S301        S  0.05937079  0.08474057  0.86295934    -0.32700
S302        S  0.33462146  0.25987359  0.84381575    -0.32700
H303        H  0.98176486  0.23438478  0.82082592     0.28700
H304        H  0.06011470  0.07371473  0.83812558     0.28700
H305        H  0.08322148  0.19413716  0.88159882     0.19300
H306        H  0.30975189  0.14808863  0.82546542     0.19300
C307        C  0.22916067  0.44960786  0.83775063    -0.06600
C308        C  0.20114620  0.39563817  0.83065385    -0.17700
C309        C  0.16655967  0.37038773  0.84156207     0.10600
C310        C  0.15978434  0.39851832  0.86091695    -0.06500
C311        C  0.18741106  0.45324265  0.86731509    -0.17700
C312        C  0.22145122  0.47887169  0.85598484     0.10700
S313        S  0.13333580  0.30157001  0.83047347    -0.32700
S314        S  0.25285785  0.55016505  0.86466360    -0.32700
H315        H  0.25809871  0.06654880  0.83985947     0.28700
H316        H  0.12638079  0.27943356  0.85349678     0.28700
H317        H  0.20638693  0.37253734  0.81656032     0.19300
H318        H  0.18238575  0.47666753  0.88135765     0.19300
C319        C  0.23289321  0.45306315  0.78254619    -0.06600
C320        C  0.20690317  0.47232748  0.78491073    -0.17700
C321        C  0.18029204  0.46241973  0.76643662     0.10600
C322        C  0.17946010  0.43246162  0.74518972    -0.06500
C323        C  0.20334762  0.40967236  0.74352840    -0.17700
C324        C  0.22963568  0.41884638  0.76212444     0.10700
S325        S  0.14979685  0.99171913  0.77038603    -0.32700
S326        S  0.25724366  0.38401378  0.75994680    -0.32700
H327        H  0.23796553  0.34892553  0.73976568     0.28700
H328        H  0.15230937  0.01015109  0.74665780     0.28700
H329        H  0.20951810  0.99922464  0.80036491     0.19300
H330        H  0.20104392  0.38416729  0.72768578     0.19300
C331        C  0.04107971  0.19226041  0.75112926    -0.06600
C332        C  0.00334622  0.17126467  0.75567902    -0.17700
C333        C  0.98657831  0.13155454  0.77325308     0.10600
C334        C  0.00814296  0.11311512  0.78663834    -0.06500
C335        C  0.04648008  0.13742010  0.78335430    -0.17700
C336        C  0.06315981  0.17665131  0.76566750     0.10700
S337        S  0.93769603  0.10429288  0.77826789    -0.32700
S338        S  0.11228973  0.20326926  0.76169214    -0.32700
H339        H  0.11908977  0.25526532  0.75329908     0.28700
H340        H  0.26301243  0.12817126  0.75930683     0.28700
H341        H  0.98677596  0.18419172  0.74469082     0.19300
H342        H  0.06315452  0.12376699  0.79383387     0.19300
C343        C  0.04295524  0.42345156  0.74569239    -0.06600
C344        C  0.02127067  0.38475770  0.76270688    -0.17700
C345        C  0.00477360  0.39975533  0.78148901     0.10600
C346        C  0.01159888  0.45542633  0.78394286    -0.06500
C347        C  0.03426761  0.49394462  0.76741078    -0.17700
C348        C  0.04853283  0.47850627  0.74797590     0.10700
S349        S  0.97273998  0.34658468  0.80053485    -0.32700
S350        S  0.07096428  0.53069804  0.72584836    -0.32700
H351        H  0.05448395  0.49343320  0.70581489     0.28700
H352        H  0.97548829  0.30176536  0.78983312     0.28700
H353        H  0.01689617  0.34260047  0.76108320     0.19300
H354        H  0.03883508  0.03648267  0.76850770     0.19300
C355        C  0.14929375  0.27384815  0.45831372    -0.06600
C356        C  0.12671994  0.23805609  0.43919617    -0.17700
C357        C  0.14184736  0.22154857  0.42048744     0.10600
C358        C  0.18042132  0.23986962  0.42118609    -0.06500
C359        C  0.20228478  0.27002189  0.44156847    -0.17700
C360        C  0.18752170  0.28778193  0.46008519     0.10700
S361        S  0.11102269  0.18156343  0.39534880    -0.32700
S362        S  0.22116595  0.33458750  0.48268998    -0.32700
H363        H  0.20385434  0.36720619  0.48717465     0.28700
H364        H  0.13592288  0.21109868  0.37739075     0.28700
H365        H  0.09735770  0.22619103  0.43790674     0.19300
H366        H  0.23182100  0.28289140  0.44232984     0.19300
C367        C  0.04290018  0.29010882  0.45079897    -0.06600
C368        C  0.04361800  0.33065915  0.43553007    -0.17700
C369        C  0.01551980  0.31846655  0.41793003     0.10600
C370        C  0.32010830  0.26175713  0.41366334    -0.06500
C371        C  0.32003876  0.22057785  0.42856369    -0.17700
C372        C  0.01377299  0.23498696  0.44765194     0.10700
S373        S  0.01802512  0.37698833  0.40212461    -0.32700
S374        S  0.01294407  0.18045690  0.46570065    -0.32700
H375        H  0.97773985  0.13835371  0.45725577     0.28700
H376        H  0.31352473  0.36113529  0.40685958     0.28700
H377        H  0.06584943  0.37312433  0.43793281     0.19300
H378        H  0.29817365  0.17800390  0.42580810     0.19300
C379        C  0.15123489  0.43796200  0.45114059    -0.06600
C380        C  0.13632466  0.47437090  0.44818016    -0.17700
C381        C  0.14699745  0.51151178  0.42908060     0.10600
C382        C  0.17244125  0.01180131  0.41270789    -0.06500
C383        C  0.18787295  0.97681782  0.41607124    -0.17700
C384        C  0.17820632  0.44070945  0.43498805     0.10700
S385        S  0.12561348  0.55544561  0.42624962    -0.32700
S386        S  0.20290940  0.90282928  0.43925009    -0.32700
H387        H  0.22445535  0.41850924  0.41863055     0.28700
H388        H  0.12751694  0.55916033  0.40097629     0.28700
H389        H  0.11534669  0.47244527  0.46024336     0.19300
H390        H  0.20899593  0.97919327  0.40402488     0.19300
C391        C  0.19737602  0.22942952  0.58990449    -0.06600
C392        C  0.15892977  0.21031300  0.58729409    -0.17700
C393        C  0.14038016  0.22619179  0.60407471     0.10600
C394        C  0.16060052  0.26126553  0.62420945    -0.06500
C395        C  0.19909485  0.28166659  0.62650164    -0.17700
C396        C  0.21765774  0.26579361  0.60973771     0.10700
S397        S  0.09117393  0.20286098  0.59921034    -0.32700
S398        S  0.26723130  0.29293350  0.61388475    -0.32700
H399        H  0.27237747  0.32553364  0.63504022     0.28700
H400        H  0.08611232  0.17179461  0.57756558     0.28700
H401        H  0.14331216  0.18194038  0.57231173     0.19300
H402        H  0.21437876  0.30873342  0.64192815     0.19300
C403        C  0.02318018  0.24208980  0.62685047    -0.06600
C404        C  0.02587681  0.28231243  0.61037011    -0.17700
C405        C  0.33444251  0.26931905  0.59040892     0.10600
C406        C  0.30449467  0.21474183  0.58707458    -0.06500
C407        C  0.30264437  0.17345158  0.60247026    -0.17700
C408        C  0.32849622  0.18547796  0.62161123     0.10700
S409        S  0.00524497  0.32660238  0.57301477    -0.32700
S410        S  0.32417625  0.12777478  0.63879511    -0.32700
H411        H  0.31306538  0.14584565  0.65946212     0.28700
H412        H  0.30287519  0.30677297  0.56672234     0.28700
H413        H  0.04803513  0.32485014  0.61276634     0.19300
H414        H  0.28022413  0.13120527  0.59978786     0.19300
C415        C  0.19135943  0.06738470  0.58429721    -0.06600
C416        C  0.16304348  0.06637591  0.59822914    -0.17700
C417        C  0.14679671  0.02717741  0.61582894     0.10600
C418        C  0.15963653  0.48916021  0.62047692    -0.06500
C419        C  0.18629034  0.48736523  0.60556141    -0.17700
C420        C  0.20253115  0.02637568  0.58735635     0.10700
S421        S  0.10872590  0.02729549  0.63150696    -0.32700
S422        S  0.23776902  0.02468965  0.56905137    -0.32700
H423        H  0.23800322  0.97856928  0.57958113     0.28700
H424        H  0.08959733  0.96954686  0.63471168     0.28700
H425        H  0.15377330  0.09695217  0.59552069     0.19300
H426        H  0.19590975  0.45749415  0.60899448     0.19300
C427        C  0.19213165  0.23522660  0.53519721    -0.06600
C428        C  0.16094839  0.20078247  0.52028684    -0.17700
C429        C  0.13806251  0.22054235  0.50985135     0.10600
C430        C  0.14676813  0.27702220  0.51372242    -0.06500
C431        C  0.17604934  0.31013363  0.53030118    -0.17700
C432        C  0.19950659  0.29068202  0.54020910     0.10700
S433        S  0.09745157  0.17053128  0.49248678    -0.32700
S434        S  0.24116075  0.34069995  0.55643550    -0.32700
H435        H  0.26347584  0.32384440  0.54367797     0.28700
H436        H  0.07872431  0.20186534  0.49294715     0.28700
H437        H  0.15379072  0.15755489  0.51719936     0.19300
H438        H  0.18340562  0.35345969  0.53332627     0.19300
C439        C  0.18891820  0.06344225  0.52890855    -0.06600
C440        C  0.15237155  0.02452279  0.53448237    -0.17700
C441        C  0.13416860  0.47095775  0.52360232     0.10600
C442        C  0.15265733  0.45447908  0.50664961    -0.06500
C443        C  0.18893335  0.49383642  0.50071210    -0.17700
C444        C  0.20669678  0.04788833  0.51111408     0.10700
S445        S  0.08730260  0.42420610  0.53191381    -0.32700
S446        S  0.25248191  0.09611338  0.50154357    -0.32700
H447        H  0.25380112  0.06293636  0.48225936     0.28700
H448        H  0.08406409  0.45946014  0.54939811     0.28700
H449        H  0.13814287  0.03664600  0.54754611     0.19300
H450        H  0.20352842  0.48157686  0.48799068     0.19300
C451        C  0.30464256  0.22531807  0.53072224    -0.06600
C452        C  0.30964842  0.26814768  0.51522689    -0.17700
C453        C  0.00910135  0.29926454  0.50398234     0.10600
C454        C  0.03871449  0.28652217  0.50702374    -0.06500
C455        C  0.03403147  0.24416865  0.52259115    -0.17700
C456        C  0.33357840  0.21090964  0.53299197     0.10700
S457        S  0.01214496  0.35619585  0.48658881    -0.32700
S458        S  0.32923280  0.15095503  0.54846276    -0.32700
H459        H  0.29035723  0.12361582  0.54871042     0.28700
H460        H  0.05087802  0.38396482  0.48432550     0.28700
H461        H  0.28795944  0.27992336  0.51334513     0.19300
H462        H  0.05619626  0.23355851  0.52495444     0.19300
C463        C  0.23020103  0.67670977  0.53476568     0.45000
H464        H  0.22868914  0.67829760  0.51476097    -0.04000
C465        C  0.23306242  0.67342151  0.58158168     0.45100
H466        H  0.23381294  0.67143203  0.60162834    -0.04000
C467        C  0.27062528  0.70092006  0.54587818    -0.17700
C468        C  0.21307287  0.70969004  0.54793680    -0.17500
C469        C  0.20918796  0.61651595  0.54423121    -0.17800
C470        C  0.27143648  0.69888246  0.57074902    -0.17800
C471        C  0.21510971  0.70765895  0.57269572    -0.17400
C472        C  0.21091649  0.61605001  0.56906609    -0.17700
C473        C  0.11459714  0.83199349  0.45928411     0.45000
H474        H  0.11501760  0.82860244  0.43924723    -0.04000
C475        C  0.11339605  0.84019687  0.50599729     0.45100
H476        H  0.11302762  0.84332395  0.52600411    -0.04000
C477        C  0.13305688  0.80246354  0.47257260    -0.17700
C478        C  0.13491436  0.89218592  0.46892412    -0.17500
C479        C  0.07509670  0.80726095  0.46851017    -0.17800
C480        C  0.13180846  0.80500023  0.49728707    -0.17800
C481        C  0.13441483  0.89782452  0.49372559    -0.17400
C482        C  0.07392939  0.81134033  0.49328677    -0.17700
O483        O  0.05984873  0.70206411  0.71100147    -0.81300
O484        O  0.13828034  0.90365419  0.64017750    -0.66000
O485        O  0.11065248  0.80223756  0.69149098    -1.12600
C486        C  0.06214695  0.90808702  0.72687879     1.05600
O487        O  0.14887394  0.97934207  0.66203876    -0.79200
O488        O  0.15799834  0.95031017  0.70816723    -0.66800
Ni489      Ni  0.08725010  0.72470004  0.68189325     1.34900
C490        C  0.15142845  0.91872606  0.72593646     0.84300
O491        O  0.15503788  0.82460036  0.65157479    -0.79800
O492        O  0.11346747  0.73499746  0.65233386    -0.90000
C493        C  0.14861000  0.95516686  0.64213359     0.83900
O494        O  0.04776860  0.72895415  0.66466280    -0.68300
O495        O  0.09242376  0.94629640  0.71931167    -0.87500
C496        C  0.05279310  0.75945358  0.64660950     0.84700
C497        C  0.14233229  0.77463632  0.64394972     1.06300
H498        H  0.07340176  0.87249838  0.67009858     0.38100
O499        O  0.09472274  0.87979348  0.68047511    -1.10200
O500        O  0.12045064  0.87513420  0.72826195    -0.66800
Ni501      Ni  0.07946458  0.82883067  0.70602399     1.26300
O502        O  0.08307790  0.80449146  0.64429982    -0.67100
O503        O  0.04938256  0.85758855  0.71981942    -0.79400
C504        C  0.05577638  0.72591261  0.72973062     0.84100
O505        O  0.06420231  0.77675231  0.73098099    -0.66500
Ni506      Ni  0.11987322  0.95693779  0.69043324     1.27400
Ni507      Ni  0.12496472  0.85259611  0.66563557     1.26100
H508        H  0.13223083  0.81084438  0.70185870     0.38600
C509        C  0.30474766  0.50358246  0.83727280     0.45000
H510        H  0.30481118  0.50404886  0.85732973    -0.04000
C511        C  0.30485923  0.50333085  0.79037851     0.45100
H512        H  0.30506321  0.50417875  0.77030500    -0.04000
C513        C  0.26530150  0.97591702  0.82462057    -0.17700
C514        C  0.32524973  0.56307628  0.82694508    -0.17500
C515        C  0.32480207  0.97270309  0.82626626    -0.17800
C516        C  0.26621336  0.97522076  0.79978396    -0.17800
C517        C  0.32396587  0.56173540  0.80218027    -0.17400
C518        C  0.99123077  0.97473330  0.80025058    -0.17700
C519        C  0.08529803  0.83925786  0.86693368     0.45000
H520        H  0.08209049  0.83704567  0.84692049    -0.04000
C521        C  0.09283402  0.84509996  0.91374988     0.45100
H522        H  0.09580730  0.84827682  0.93381984    -0.04000
C523        C  0.06888719  0.78091156  0.87873733    -0.17700
C524        C  0.12667315  0.87163767  0.87641877    -0.17500
C525        C  0.06570561  0.86948011  0.87928700    -0.17800
C526        C  0.07450445  0.78520185  0.90361091    -0.17800
C527        C  0.13005146  0.87487590  0.90123930    -0.17400
C528        C  0.06845004  0.86934363  0.90412515    -0.17700
C529        C  0.24212973  0.67420210  0.12520568     0.45000
H530        H  0.24423212  0.67841109  0.10552494    -0.04000
C531        C  0.24293523  0.67417063  0.17206567     0.45100
H532        H  0.24321014  0.67376463  0.19212058    -0.04000
C533        C  0.20270968  0.64266618  0.13422557    -0.17700
C534        C  0.26266852  0.64514529  0.13604086    -0.17500
C535        C  0.25955144  0.73218664  0.13709906    -0.17800
C536        C  0.20292385  0.64237316  0.15955003    -0.17800
C537        C  0.26463737  0.64607010  0.16078921    -0.17400
C538        C  0.26059949  0.73387210  0.16189377    -0.17700
C539        C  0.02806117  0.50964911  0.20172552     0.45000
H540        H  0.02819329  0.50741727  0.18170592    -0.04000
C541        C  0.02867836  0.51729445  0.24859368     0.45100
H542        H  0.02968774  0.02139231  0.26884925    -0.04000
C543        C  0.06776487  0.53708325  0.21398221    -0.17700
C544        C  0.01054806  0.54551717  0.21106832    -0.17500
C545        C  0.00685064  0.95279453  0.21388886    -0.17800
C546        C  0.06758330  0.53940354  0.23867385    -0.17800
C547        C  0.01102726  0.54888408  0.23583584    -0.17400
C548        C  0.00688282  0.95790883  0.23883017    -0.17700
O549        O  0.18827101  0.53041822  0.37167447    -0.81300
O550        O  0.27488230  0.74614758  0.31091677    -0.66000
O551        O  0.24477900  0.63354902  0.35693477    -1.12600
C552        C  0.19914787  0.73124412  0.40043904     1.05600
O553        O  0.28255783  0.81726360  0.33485465    -0.79200
O554        O  0.29391247  0.77903368  0.37789440    -0.66800
Ni555      Ni  0.21918074  0.55847231  0.34399112     1.34900
C556        C  0.28919861  0.74639488  0.39497160     0.84300
O557        O  0.28992376  0.66569044  0.31797148    -0.79800
O558        O  0.24839890  0.57566076  0.31534921    -0.90000
C559        C  0.28567069  0.79716587  0.31463242     0.83900
O560        O  0.18146594  0.56782881  0.32695347    -0.68300
O561        O  0.22878824  0.77232758  0.39353247    -0.87500
C562        C  0.18747169  0.60366330  0.31101592     0.84700
C563        C  0.27781689  0.61755587  0.30859201     1.06300
H564        H  0.20794228  0.70793793  0.34127040     0.38100
O565        O  0.22964356  0.71385244  0.35088762    -1.10200
O566        O  0.25853411  0.70134193  0.39675053    -0.66800
Ni567      Ni  0.21569474  0.65825650  0.37446235     1.26300
O568        O  0.21824815  0.64865770  0.31058616    -0.67100
O569        O  0.18623752  0.68306244  0.39090373    -0.79400
C570        C  0.18759849  0.55038195  0.39256893     0.84100
O571        O  0.20150029  0.60189944  0.39725372    -0.66500
Ni572      Ni  0.25486790  0.78899828  0.36358272     1.27400
Ni573      Ni  0.25973240  0.68989270  0.33375717     1.26100
H574        H  0.26627392  0.63860544  0.36657570     0.38600
O575        O  0.03575014  0.64758419  0.00029834    -0.81300
O576        O  0.32157717  0.93452394  0.06302276    -0.66000
O577        O  0.02940104  0.54673769  0.01635012    -1.12600
C578        C  0.25118677  0.94690090  0.97174214     1.05600
O579        O  0.27922492  0.86284360  0.04014252    -0.79200
O580        O  0.31509401  0.89678362  0.99636372    -0.66800
Ni581      Ni  0.05425045  0.62317674  0.02735452     1.34900
C582        C  0.99925942  0.93120465  0.98003136     0.84300
O583        O  0.05635925  0.51737297  0.05683356    -0.79800
O584        O  0.07710674  0.60903451  0.05548434    -0.90000
C585        C  0.29718682  0.88409675  0.06011193     0.83900
O586        O  0.01459682  0.61790751  0.04589890    -0.68300
O587        O  0.25504043  0.90609474  0.97899750    -0.87500
C588        C  0.33133077  0.58085251  0.06239666     0.84700
C589        C  0.07789296  0.56702922  0.06429482     1.06300
H590        H  0.27879839  0.97362290  0.03148822     0.38100
O591        O  0.29575266  0.96630367  0.02220138    -1.10200
O592        O  0.99745776  0.97596189  0.97736647    -0.66800
Ni593      Ni  0.31677695  0.52059307  0.99829447     1.26300
O594        O  0.32963850  0.53329189  0.06229549    -0.67100
O595        O  0.27048607  0.99544435  0.98085860    -0.79400
C596        C  0.02338212  0.62670185  0.97911947     0.84100
O597        O  0.00492554  0.57513447  0.97475616    -0.66500
Ni598      Ni  0.27065365  0.89038517  0.01000415     1.27400
Ni599      Ni  0.00869927  0.99030786  0.03969270     1.26100
H600        H  0.04684176  0.54038384  0.00721754     0.38600
C601        C  0.15865058  0.59028604  0.29129737    -0.06600
C602        C  0.14013270  0.53556188  0.28153652    -0.17700
C603        C  0.11223513  0.51937617  0.26319970     0.10600
C604        C  0.10103999  0.55775211  0.25510721    -0.06500
C605        C  0.12002687  0.61283595  0.26425849    -0.17700
C606        C  0.14938970  0.62985068  0.28167342     0.10700
S607        S  0.09199379  0.95095301  0.25011172    -0.32700
S608        S  0.17285103  0.70182360  0.29162240    -0.32700
H609        H  0.20667826  0.71141925  0.28176565     0.28700
H610        H  0.11337046  0.93251803  0.26353426     0.28700
H611        H  0.14785115  0.50543260  0.28817907     0.19300
H612        H  0.11189860  0.64270487  0.25783391     0.19300
C613        C  0.32170739  0.91016492  0.25609790    -0.06600
C614        C  0.33193541  0.86793560  0.25673918    -0.17700
C615        C  0.32180052  0.83094617  0.27586511     0.10600
C616        C  0.29974309  0.83492584  0.29430897    -0.06500
C617        C  0.28776624  0.87447525  0.29271988    -0.17700
C618        C  0.29822641  0.91151826  0.27410541     0.10700
S619        S  0.00834968  0.78461965  0.27647145    -0.32700
S620        S  0.27774321  0.95612296  0.27315285    -0.32700
H621        H  0.27079428  0.95620570  0.29791497     0.28700
H622        H  0.34493078  0.78484542  0.30174983     0.28700
H623        H  0.01717031  0.86704961  0.24286016     0.19300
H624        H  0.26899098  0.87539760  0.30594719     0.19300
C625        C  0.32763303  0.57639202  0.25069284    -0.06600
C626        C  0.35050816  0.61239476  0.26963287    -0.17700
C627        C  0.33551581  0.62877234  0.28850091     0.10600
C628        C  0.29687257  0.60990626  0.28804867    -0.06500
C629        C  0.27488940  0.58040326  0.26764821    -0.17700
C630        C  0.28940048  0.56264207  0.24905784     0.10700
S631        S  0.03540605  0.67337462  0.31248633    -0.32700
S632        S  0.25515161  0.51426283  0.22712698    -0.32700
H633        H  0.27202051  0.48069082  0.22360662     0.28700
H634        H  0.34194040  0.64063601  0.33155261     0.28700
H635        H  0.04790653  0.62671423  0.26991951     0.19300
H636        H  0.24533027  0.56741401  0.26706748     0.19300
C637        C  0.28938813  0.84856660  0.08102638    -0.06600
C638        C  0.25671229  0.83416828  0.09344927    -0.17700
C639        C  0.24805363  0.80029640  0.11356014     0.10600
C640        C  0.27241237  0.78033711  0.12121000    -0.06500
C641        C  0.30569963  0.79667050  0.10932503    -0.17700
C642        C  0.31457732  0.83074968  0.08946828     0.10700
S643        S  0.20513368  0.78030693  0.12865776    -0.32700
S644        S  0.35778869  0.84828374  0.07523436    -0.32700
H645        H  0.00992677  0.84905859  0.05036496     0.28700
H646        H  0.19568806  0.81711085  0.11686912     0.28700
H647        H  0.23781103  0.84887897  0.08715040     0.19300
H648        H  0.32430132  0.78104196  0.11496445     0.19300
C649        C  0.10607122  0.57749073  0.08350056    -0.06600
C650        C  0.13748778  0.57435326  0.07707692    -0.17700
C651        C  0.16905355  0.59419862  0.09263672     0.10600
C652        C  0.16921206  0.61733376  0.11631560    -0.06500
C653        C  0.13690851  0.62040374  0.12205844    -0.17700
C654        C  0.10525360  0.59916189  0.10654612     0.10700
S655        S  0.20819801  0.59336382  0.07888080    -0.32700
S656        S  0.06470356  0.60120545  0.11721651    -0.32700
H657        H  0.03885937  0.55337539  0.10386106     0.28700
H658        H  0.18781315  0.54607869  0.06350319     0.28700
H659        H  0.13813576  0.55949806  0.05887669     0.19300
H660        H  0.13642250  0.64255479  0.13797264     0.19300
C661        C  0.31549885  0.59642323  0.08269811    -0.06600
C662        C  0.28203760  0.55569556  0.09160991    -0.17700
C663        C  0.26420948  0.56862792  0.10979091     0.10600
C664        C  0.28145835  0.62362175  0.12010782    -0.06500
C665        C  0.31626669  0.66284882  0.11251397    -0.17700
C666        C  0.33328709  0.65039983  0.09375014     0.10700
S667        S  0.21857109  0.51338789  0.11681648    -0.32700
S668        S  0.04551212  0.70788371  0.08532338    -0.32700
H669        H  0.06152355  0.67373341  0.08056874     0.28700
H670        H  0.20701404  0.54626122  0.12982133     0.28700
H671        H  0.26859013  0.51405892  0.08339518     0.19300
H672        H  0.32991717  0.70417671  0.12091387     0.19300
C673        C  0.28580177  0.62188582  0.17438986    -0.06600
C674        C  0.27689046  0.56640294  0.16921021    -0.17700
C675        C  0.29801454  0.54244912  0.17841119     0.10600
C676        C  0.32715671  0.57278675  0.19570971    -0.06500
C677        C  0.33613279  0.62848629  0.20128995    -0.17700
C678        C  0.31656273  0.65339975  0.19045766     0.10700
S679        S  0.28396178  0.47078070  0.17013751    -0.32700
S680        S  0.33271088  0.72571667  0.19740150    -0.32700
H681        H  0.33266985  0.73764049  0.17283715     0.28700
H682        H  0.25290588  0.95973383  0.15522726     0.28700
H683        H  0.25227322  0.54071856  0.15853789     0.19300
H684        H  0.35832323  0.65276112  0.21452778     0.13900
C685        C  0.16903672  0.61472225  0.17432097    -0.06600
C686        C  0.15048789  0.64444235  0.18086588    -0.17700
C687        C  0.11772471  0.62003468  0.19376015     0.10600
C688        C  0.10289941  0.56438362  0.20054864    -0.06500
C689        C  0.12318310  0.53615600  0.19599603    -0.17700
C690        C  0.15614327  0.56080899  0.18308163     0.10700
S691        S  0.09579081  0.66100323  0.20212939    -0.32700
S692        S  0.18192797  0.52373493  0.17849303    -0.32700
H693        H  0.15923563  0.47701025  0.19177347     0.28700
H694        H  0.12166978  0.71090948  0.19206985     0.28700
H695        H  0.16088832  0.68636192  0.17480353     0.19300
H696        H  0.11321075  0.49480493  0.20259820     0.19300
C697        C  0.28033773  0.78832482  0.17649751    -0.06600
C698        C  0.31647030  0.82730149  0.17021661    -0.17700
C699        C  0.33601817  0.88049833  0.18150109     0.10600
C700        C  0.31951509  0.89635753  0.20005442    -0.06500
C701        C  0.28323645  0.85760927  0.20629344    -0.17700
C702        C  0.26404029  0.80380631  0.19531207     0.10700
S703        S  0.38260691  0.92584125  0.17242129    -0.32700
S704        S  0.21872238  0.75645617  0.20551214    -0.32700
H705        H  0.21915450  0.78852922  0.22581648     0.28700
H706        H  0.04840321  0.89595046  0.15115821     0.28700
H707        H  0.32998920  0.81545224  0.15659389     0.19300
H708        H  0.26971825  0.86972239  0.21988746     0.19300
C709        C  0.22401575  0.93698559  0.95165029    -0.06600
C710        C  0.22223190  0.90276294  0.93192076    -0.17700
C711        C  0.19337428  0.88416672  0.91424100     0.10600
C712        C  0.16579848  0.90135483  0.91595384    -0.06500
C713        C  0.16971109  0.93972733  0.93449037    -0.17700
C714        C  0.19815818  0.95726748  0.95243128     0.10700
S715        S  0.19035153  0.83123326  0.89296525    -0.32700
S716        S  0.20007311  0.50630783  0.97525881    -0.32700
H717        H  0.20563591  0.47733316  0.99422109     0.28700
H718        H  0.15145913  0.79918967  0.89255918     0.28700
H719        H  0.24218372  0.88741668  0.93111400     0.19300
H720        H  0.14900762  0.95347643  0.93586002     0.19300
C721        C  0.06215633  0.73859612  0.92079917    -0.06600
C722        C  0.02506291  0.69530733  0.91962675    -0.17700
C723        C  0.01067324  0.65826246  0.93851701     0.10600
C724        C  0.03401182  0.66432631  0.95890477    -0.06500
C725        C  0.07109095  0.70508877  0.95941345    -0.17700
C726        C  0.08551829  0.74128550  0.94072229     0.10700
S727        S  0.29684642  0.60404372  0.93573641    -0.32700
S728        S  0.13474946  0.78665793  0.94249612    -0.32700
H729        H  0.14101512  0.78388513  0.96741982     0.28700
H730        H  0.28987886  0.60486975  0.96045148     0.28700
H731        H  0.00658038  0.69184630  0.90457531     0.19300
H732        H  0.08943786  0.70716083  0.97433983     0.19300
C733        C  0.01893219  0.91602404  0.96164243    -0.06600
C734        C  0.00041653  0.86222636  0.95115410    -0.17700
C735        C  0.01448209  0.84691519  0.93134093     0.10600
C736        C  0.04837399  0.88630037  0.92153544    -0.06500
C737        C  0.06710675  0.94009694  0.93208463    -0.17700
C738        C  0.05290475  0.95521854  0.95198531     0.10700
S739        S  0.32163086  0.77482196  0.92111327    -0.32700
S740        S  0.08085794  0.02352004  0.96554287    -0.32700
H741        H  0.07957688  0.00244827  0.98868052     0.28700
H742        H  0.00397791  0.78136640  0.89775449     0.28700
H743        H  0.30824890  0.83129330  0.95882354     0.19300
H744        H  0.09375934  0.96985901  0.92539175     0.19300
C745        C  0.00967830  0.94729476  0.83990222    -0.06600
C746        C  0.04662539  0.96096855  0.83541612    -0.17700
C747        C  0.06524391  0.93715180  0.84808386     0.10600
C748        C  0.04681765  0.89702474  0.86560108    -0.06500
C749        C  0.00969415  0.88316173  0.86999966    -0.17700
C750        C  0.99105278  0.90756467  0.85745257     0.10700
S751        S  0.11348948  0.96339195  0.84218008    -0.32700
S752        S  0.27680855  0.88499354  0.86429166    -0.32700
H753        H  0.27220287  0.84515983  0.88140070     0.28700
H754        H  0.12388881  0.97214514  0.86695496     0.28700
H755        H  0.06161622  0.99169467  0.82222384     0.19300
H756        H  0.99475045  0.85212035  0.88288038     0.19300
C757        C  0.04917983  0.72587688  0.86478574    -0.06600
C758        C  0.05967416  0.68471649  0.86918921    -0.17700
C759        C  0.04116804  0.63181920  0.85748596     0.10600
C760        C  0.01077363  0.61823269  0.84106635    -0.06500
C761        C  0.00020730  0.65926569  0.83680273    -0.17700
C762        C  0.01904568  0.71258167  0.84813394     0.10700
S763        S  0.05927535  0.58487509  0.86302064    -0.32700
S764        S  0.33569134  0.76022839  0.84295340    -0.32700
H765        H  0.98050625  0.73347064  0.82107033     0.28700
H766        H  0.06033061  0.57408461  0.83819775     0.28700
H767        H  0.08308771  0.69425942  0.88155576     0.19300
H768        H  0.31021374  0.64803071  0.82511487     0.19300
C769        C  0.22944949  0.95037552  0.83765624    -0.06600
C770        C  0.20151375  0.89633093  0.83062006    -0.17700
C771        C  0.16694354  0.87094040  0.84155717     0.10600
C772        C  0.16009005  0.89894461  0.86093646    -0.06500
C773        C  0.18764875  0.95375655  0.86731240    -0.17700
C774        C  0.22160601  0.97963842  0.85583610     0.10700
S775        S  0.13387375  0.80202824  0.83047242    -0.32700
S776        S  0.25261954  0.05131096  0.86410837    -0.32700
H777        H  0.25858694  0.56622418  0.84052910     0.28700
H778        H  0.12639835  0.77991919  0.85347851     0.28700
H779        H  0.20681061  0.87325153  0.81654667     0.19300
H780        H  0.18257342  0.97708840  0.88137614     0.19300
C781        C  0.23347880  0.95382933  0.78244113    -0.06600
C782        C  0.20769820  0.97349126  0.78472331    -0.17700
C783        C  0.18115022  0.96368889  0.76623758     0.10600
C784        C  0.17998068  0.93304820  0.74514769    -0.06500
C785        C  0.20379933  0.91014890  0.74349856    -0.17700
C786        C  0.23022653  0.91957365  0.76202503     0.10700
S787        S  0.14830902  0.48920848  0.77084859    -0.32700
S788        S  0.25809250  0.88515721  0.75972020    -0.32700
H789        H  0.23989424  0.85169728  0.73892670     0.28700
H790        H  0.15080224  0.50837481  0.74726001     0.28700
H791        H  0.20856694  0.49778077  0.80061896     0.19300
H792        H  0.20135836  0.88444152  0.72770029     0.19300
C793        C  0.04103658  0.69241168  0.75105827    -0.06600
C794        C  0.00326811  0.67113539  0.75557872    -0.17700
C795        C  0.98655725  0.63121467  0.77308342     0.10600
C796        C  0.00823326  0.61301390  0.78649842    -0.06500
C797        C  0.04656163  0.63740634  0.78316184    -0.17700
C798        C  0.06315726  0.67666628  0.76547525     0.10700
S799        S  0.93762873  0.60355362  0.77804637    -0.32700
S800        S  0.11221549  0.70296592  0.76126603    -0.32700
H801        H  0.11913359  0.75489319  0.75272122     0.28700
H802        H  0.26253304  0.62807984  0.75958079     0.28700
H803        H  0.98664775  0.68409837  0.74466148     0.19300
H804        H  0.06329520  0.62378272  0.79359319     0.19300
C805        C  0.04314706  0.92394191  0.74553558    -0.06600
C806        C  0.02128381  0.88509482  0.76244494    -0.17700
C807        C  0.00461048  0.89990242  0.78117514     0.10600
C808        C  0.01137095  0.95554118  0.78367924    -0.06500
C809        C  0.03407270  0.99416884  0.76718555    -0.17700
C810        C  0.04860754  0.97893409  0.74782429     0.10700
S811        S  0.97258642  0.84654885  0.80016224    -0.32700
S812        S  0.07129031  0.03130669  0.72581015    -0.32700
H813        H  0.05511938  0.99417717  0.70570277     0.28700
H814        H  0.97400965  0.80139772  0.78865799     0.28700
H815        H  0.01698938  0.84297891  0.76082421     0.19300
H816        H  0.03910643  0.53629773  0.76871869     0.19300
C817        C  0.14963894  0.77403695  0.45824132    -0.06600
C818        C  0.12689182  0.73778828  0.43929948    -0.17700
C819        C  0.14186778  0.72113431  0.42056104     0.10600
C820        C  0.18050698  0.74010310  0.42098236    -0.06500
C821        C  0.20264167  0.77099337  0.44116399    -0.17700
C822        C  0.18794742  0.78852594  0.45980248     0.10700
S823        S  0.11070620  0.67997989  0.39576094    -0.32700
S824        S  0.22156152  0.83529234  0.48245096    -0.32700
H825        H  0.20399751  0.86744231  0.48721413     0.28700
H826        H  0.13510474  0.70912344  0.37751026     0.28700
H827        H  0.09746063  0.72553058  0.43820224     0.19300
H828        H  0.23224768  0.78435832  0.44172200     0.19300
C829        C  0.04316328  0.78919952  0.45076753    -0.06600
C830        C  0.04375428  0.82990257  0.43567063    -0.17700
C831        C  0.01557883  0.81786303  0.41818351     0.10600
C832        C  0.31956314  0.76212431  0.41392200    -0.06500
C833        C  0.31972227  0.72072686  0.42857629    -0.17700
C834        C  0.01422415  0.73396190  0.44744257     0.10700
S835        S  0.01730650  0.87672644  0.40312686    -0.32700
S836        S  0.01335392  0.67938634  0.46549235    -0.32700
H837        H  0.97874142  0.63678061  0.45642073     0.28700
H838        H  0.31203208  0.86074015  0.40747262     0.28700
H839        H  0.06580505  0.87245285  0.43824738     0.19300
H840        H  0.29811324  0.67805427  0.42559094     0.19300
C841        C  0.15110351  0.93800281  0.45137825    -0.06600
C842        C  0.13601728  0.97421260  0.44843041    -0.17700
C843        C  0.14655004  0.01133442  0.42930537     0.10600
C844        C  0.17283264  0.51177985  0.41249777    -0.06500
C845        C  0.18808156  0.47653933  0.41583995    -0.17700
C846        C  0.17803369  0.94091796  0.43516994     0.10700
S847        S  0.12497491  0.05501637  0.42647863    -0.32700
S848        S  0.20243688  0.40158148  0.43902686    -0.32700
H849        H  0.21635541  0.90769862  0.41580629     0.28700
H850        H  0.12707570  0.05903122  0.40122302     0.28700
H851        H  0.11501596  0.97213113  0.46051063     0.19300
H852        H  0.20886157  0.47843329  0.40361452     0.19300
C853        C  0.19741624  0.72928631  0.59005030    -0.06600
C854        C  0.15899303  0.71034141  0.58748007    -0.17700
C855        C  0.14058536  0.72637264  0.60430210     0.10600
C856        C  0.16092894  0.76137694  0.62442139    -0.06500
C857        C  0.19939018  0.78162323  0.62666497    -0.17700
C858        C  0.21781883  0.76568702  0.60984727     0.10700
S859        S  0.09144208  0.70352595  0.59947013    -0.32700
S860        S  0.26737560  0.79279551  0.61391623    -0.32700
H861        H  0.27298543  0.82816858  0.63416647     0.28700
H862        H  0.08574908  0.66974951  0.57861667     0.28700
H863        H  0.14330846  0.68210614  0.57247344     0.19300
H864        H  0.21474818  0.80857569  0.64210526     0.19300
C865        C  0.02369818  0.74239926  0.62684312    -0.06600
C866        C  0.02657650  0.78246764  0.61022750    -0.17700
C867        C  0.33406439  0.76937133  0.59081714     0.10600
C868        C  0.30428656  0.71467352  0.58736030    -0.06500
C869        C  0.30256415  0.67326928  0.60262638    -0.17700
C870        C  0.32851914  0.68520098  0.62167721     0.10700
S871        S  0.00617080  0.82668974  0.57276058    -0.32700
S872        S  0.32487433  0.62726609  0.63839275    -0.32700
H873        H  0.31348264  0.64412554  0.65927865     0.28700
H874        H  0.30249517  0.80636900  0.56675723     0.28700
H875        H  0.04899412  0.82485562  0.61244650     0.19300
H876        H  0.28028524  0.63094862  0.59982752     0.19300
C877        C  0.19093180  0.56700266  0.58413461    -0.06600
C878        C  0.16254584  0.56606139  0.59796810    -0.17700
C879        C  0.14625555  0.52701759  0.61562399     0.10600
C880        C  0.16026947  0.98940357  0.62060181    -0.06500
C881        C  0.18690117  0.98773139  0.60563186    -0.17700
C882        C  0.20206178  0.52598791  0.58729374     0.10700
S883        S  0.10832819  0.52755925  0.63130443    -0.32700
S884        S  0.23745016  0.52432010  0.56913750    -0.32700
H885        H  0.23820084  0.47898374  0.58009348     0.28700
H886        H  0.08899625  0.46980582  0.63446093     0.28700
H887        H  0.15334005  0.59669009  0.59519347     0.19300
H888        H  0.19658844  0.95791715  0.60901176     0.19300
C889        C  0.19226730  0.73516037  0.53529367    -0.06600
C890        C  0.16129574  0.70070179  0.52022598    -0.17700
C891        C  0.13843304  0.72036808  0.50970481     0.10600
C892        C  0.14702598  0.77677433  0.51361984    -0.06500
C893        C  0.17612541  0.80990516  0.53028402    -0.17700
C894        C  0.19949241  0.79051936  0.54033978     0.10700
S895        S  0.09793573  0.67032981  0.49226029    -0.32700
S896        S  0.24079503  0.84050844  0.55687622    -0.32700
H897        H  0.26348238  0.82461846  0.54398737     0.28700
H898        H  0.07901114  0.70137282  0.49295168     0.28700
H899        H  0.15425818  0.65752927  0.51710665     0.19300
H900        H  0.18334855  0.85317017  0.53334399     0.19300
C901        C  0.18898383  0.56383929  0.52874563    -0.06600
C902        C  0.15230403  0.52519270  0.53412266    -0.17700
C903        C  0.13423537  0.97028054  0.52394007     0.10600
C904        C  0.15268383  0.95389041  0.50692848    -0.06500
C905        C  0.18888420  0.99336400  0.50091270    -0.17700
C906        C  0.20687899  0.54822010  0.51106330     0.10700
S907        S  0.08741604  0.92335613  0.53228341    -0.32700
S908        S  0.25302524  0.59613659  0.50193144    -0.32700
H909        H  0.25533914  0.56207026  0.48344012     0.28700
H910        H  0.08268796  0.96050000  0.54785876     0.28700
H911        H  0.13800219  0.53750193  0.54705660     0.19300
H912        H  0.20348278  0.98117161  0.48816405     0.19300
C913        C  0.30473395  0.72547826  0.53106126    -0.06600
C914        C  0.30969160  0.76837346  0.51563058    -0.17700
C915        C  0.00928668  0.79858434  0.50387697     0.10600
C916        C  0.03879918  0.78566572  0.50697868    -0.06500
C917        C  0.03404899  0.74342529  0.52263733    -0.17700
C918        C  0.33367706  0.71108071  0.53329668     0.10700
S919        S  0.01252736  0.85554015  0.48642195    -0.32700
S920        S  0.32950626  0.65135534  0.54889265    -0.32700
H921        H  0.29063575  0.62388149  0.54926472     0.28700
H922        H  0.05132386  0.88347855  0.48447305     0.28700
H923        H  0.28801607  0.78019736  0.51382945     0.19300
H924        H  0.05614858  0.73268609  0.52504327     0.19300
C925        C  0.56317659  0.17527315  0.53488545     0.45000
H926        H  0.56188573  0.17735708  0.51489492    -0.04000
C927        C  0.56543632  0.17062413  0.58166355     0.45100
H928        H  0.56582073  0.16807033  0.60168783    -0.04000
C929        C  0.60358730  0.19980935  0.54619251    -0.17700
C930        C  0.54551704  0.20740705  0.54811366    -0.17500
C931        C  0.54221781  0.11475059  0.54400284    -0.17800
C932        C  0.60407353  0.19725092  0.57107944    -0.17800
C933        C  0.54720731  0.20472959  0.57286818    -0.17400
C934        C  0.54396200  0.11335712  0.56883159    -0.17700
C935        C  0.44855687  0.33138229  0.45878594     0.45000
H936        H  0.44920207  0.32806548  0.43876093    -0.04000
C937        C  0.44689950  0.33954467  0.50548108     0.45100
H938        H  0.44630227  0.34272391  0.52547315    -0.04000
C939        C  0.46686847  0.30179947  0.47225082    -0.17700
C940        C  0.46883244  0.39151295  0.46843931    -0.17500
C941        C  0.40893102  0.30674897  0.46782148    -0.17800
C942        C  0.46535619  0.30422787  0.49695389    -0.17800
C943        C  0.46808522  0.39717367  0.49319733    -0.17400
C944        C  0.40753959  0.31074264  0.49259015    -0.17700
O945        O  0.39137961  0.20054716  0.71096776    -0.81300
O946        O  0.47050500  0.40222259  0.64033240    -0.66000
O947        O  0.44290240  0.30066007  0.69154428    -1.12600
C948        C  0.39438271  0.40575690  0.72761515     1.05600
O949        O  0.47662820  0.47723495  0.66086960    -0.79200
O950        O  0.48964533  0.45022613  0.70708896    -0.66800
Ni951      Ni  0.41932754  0.22307392  0.68199347     1.34900
C952        C  0.48419892  0.41930644  0.72505493     0.84300
O953        O  0.48735479  0.32325889  0.65167626    -0.79800
O954        O  0.44608316  0.23341350  0.65262714    -0.90000
C955        C  0.47865699  0.45302900  0.64158865     0.83900
O956        O  0.38002660  0.22703555  0.66429548    -0.68300
O957        O  0.42433655  0.44390881  0.71975860    -0.87500
C958        C  0.38545884  0.25763463  0.64622463     0.84700
C959        C  0.47479529  0.27318378  0.64412086     1.06300
H960        H  0.40438721  0.36879711  0.67025170     0.38100
O961        O  0.42602350  0.37725880  0.68053153    -1.10200
O962        O  0.45371291  0.37507746  0.72785463    -0.66800
Ni963      Ni  0.41197111  0.32714022  0.70640056     1.26300
O964        O  0.41566189  0.30285796  0.64421980    -0.67100
O965        O  0.38170473  0.35527646  0.72058408    -0.79400
C966        C  0.38888166  0.22479516  0.73012353     0.84100
O967        O  0.39830946  0.27599445  0.73166709    -0.66500
Ni968      Ni  0.44995025  0.45461890  0.69014695     1.27400
Ni969      Ni  0.45702915  0.35102341  0.66574763     1.26100
H970        H  0.46457028  0.30921031  0.70180906     0.38600
C971        C  0.63778852  0.00371098  0.83671229     0.45000
H972        H  0.63766327  0.00392769  0.85676320    -0.04000
C973        C  0.63837618  0.00422698  0.78984625     0.45100
H974        H  0.63875820  0.00547267  0.76978465    -0.04000
C975        C  0.59817154  0.47576505  0.82403574    -0.17700
C976        C  0.65840626  0.06334025  0.82657876    -0.17500
C977        C  0.65755853  0.47197597  0.82555666    -0.17800
C978        C  0.59906910  0.47553807  0.79917112    -0.17800
C979        C  0.65740435  0.06240975  0.80184491    -0.17400
C980        C  0.32463188  0.47301107  0.80138529    -0.17700
C981        C  0.41889804  0.33872695  0.86738282     0.45000
H982        H  0.41532356  0.33661455  0.84738931    -0.04000
C983        C  0.42698896  0.34422594  0.91418202     0.45100
H984        H  0.43020557  0.34729076  0.93424121    -0.04000
C985        C  0.40264666  0.28037505  0.87908600    -0.17700
C986        C  0.46036034  0.37091341  0.87664518    -0.17500
C987        C  0.39957994  0.36894619  0.88004804    -0.17800
C988        C  0.40853207  0.28440966  0.90392253    -0.17800
C989        C  0.46401367  0.37399690  0.90146400    -0.17400
C990        C  0.40261027  0.36871511  0.90484883    -0.17700
C991        C  0.57498172  0.17290389  0.12515264     0.45000
H992        H  0.57695691  0.17713002  0.10547887    -0.04000
C993        C  0.57626861  0.17320052  0.17199898     0.45100
H994        H  0.57673436  0.17286438  0.19205418    -0.04000
C995        C  0.53560198  0.14151620  0.13429743    -0.17700
C996        C  0.59558892  0.14381397  0.13586240    -0.17500
C997        C  0.59264542  0.23098029  0.13699782    -0.17800
C998        C  0.53609167  0.14156739  0.15963861    -0.17800
C999        C  0.59781659  0.14489205  0.16061581    -0.17400
C1000       C  0.59397174  0.23289120  0.16179985    -0.17700
C1001       C  0.36130862  0.00960573  0.20197012     0.45000
H1002       H  0.36153712  0.00759012  0.18194965    -0.04000
C1003       C  0.36168333  0.01657714  0.24884332     0.45100
H1004       H  0.36198803  0.51939514  0.26887106    -0.04000
C1005       C  0.40098044  0.03716854  0.21426915    -0.17700
C1006       C  0.34350791  0.04502306  0.21138957    -0.17500
C1007       C  0.33950896  0.45116227  0.21383128    -0.17800
C1008       C  0.40069246  0.03907055  0.23896372    -0.17800
C1009       C  0.34389555  0.04816907  0.23618914    -0.17400
C1010       C  0.33931063  0.45610002  0.23878460    -0.17700
O1011       O  0.52190653  0.02992161  0.37147189    -0.81300
O1012       O  0.60843233  0.24556992  0.31077342    -0.66000
O1013       O  0.57849851  0.13307625  0.35681813    -1.12600
C1014       C  0.53330644  0.23101933  0.40032599     1.05600
O1015       O  0.61722258  0.31683152  0.33498245    -0.79200
O1016       O  0.62796900  0.27723554  0.37769946    -0.66800
Ni1017     Ni  0.55304070  0.05797901  0.34389565     1.34900
C1018       C  0.62289349  0.24501401  0.39498136     0.84300
O1019       O  0.62362050  0.16536557  0.31778501    -0.79800
O1020       O  0.58245215  0.07518444  0.31534158    -0.90000
C1021       C  0.61981072  0.29668890  0.31462876     0.83900
O1022       O  0.51534262  0.06704918  0.32670670    -0.68300
O1023       O  0.56324206  0.27187496  0.39360734    -0.87500
C1024       C  0.52120950  0.10304893  0.31087696     0.84700
C1025       C  0.61171412  0.11721899  0.30850190     1.06300
H1026       H  0.54198377  0.20814740  0.34118715     0.38100
O1027       O  0.56358741  0.21361794  0.35079963    -1.10200
O1028       O  0.59202685  0.20034770  0.39679723    -0.66800
Ni1029     Ni  0.54936958  0.15781830  0.37428877     1.26300
O1030       O  0.55188308  0.14821547  0.31051736    -0.67100
O1031       O  0.52006595  0.18295154  0.39061843    -0.79400
C1032       C  0.52095648  0.04979466  0.39232923     0.84100
O1033       O  0.53475965  0.10128303  0.39702170    -0.66500
Ni1034     Ni  0.58937376  0.28857098  0.36365415     1.27400
Ni1035     Ni  0.59344893  0.18943701  0.33362395     1.26100
H1036       H  0.59999673  0.13821072  0.36647439     0.38600
O1037       O  0.36883924  0.14615082  0.00038110    -0.81300
O1038       O  0.65458164  0.43334576  0.06312704    -0.66000
O1039       O  0.36239396  0.04514398  0.01631887    -1.12600
C1040       C  0.58531898  0.44693457  0.97161640     1.05600
O1041       O  0.61271688  0.36187371  0.03991337    -0.79200
O1042       O  0.64872480  0.39621628  0.99622677    -0.66800
Ni1043     Ni  0.38722920  0.12152524  0.02741649     1.34900
C1044       C  0.33276738  0.43161632  0.98011672     0.84300
O1045       O  0.38893530  0.01539907  0.05688764    -0.79800
O1046       O  0.40995854  0.10714169  0.05552694    -0.90000
C1047       C  0.63033819  0.38287748  0.05999959     0.83900
O1048       O  0.34755104  0.11619707  0.04596248    -0.68300
O1049       O  0.58890385  0.40594183  0.97890803    -0.87500
C1050       C  0.66501890  0.08096603  0.06206794     0.84700
C1051       C  0.41052275  0.06502369  0.06438778     1.06300
H1052       H  0.61226904  0.47289263  0.03143760     0.38100
O1053       O  0.62933506  0.46567294  0.02222903    -1.10200
O1054       O  0.33107421  0.47650122  0.97762362    -0.66800
Ni1055     Ni  0.65041905  0.01985137  0.99830544     1.26300
O1056       O  0.66339560  0.03345577  0.06213819    -0.67100
O1057       O  0.60460393  0.49539073  0.98081286    -0.79400
C1058       C  0.35690372  0.12545480  0.97912890     0.84100
O1059       O  0.33845993  0.07391750  0.97468028    -0.66500
Ni1060     Ni  0.60430613  0.38984518  0.00986829     1.27400
Ni1061     Ni  0.34191238  0.48997517  0.04014115     1.26100
H1062       H  0.37988398  0.03881134  0.00723821     0.38600
C1063       C  0.49224636  0.08973490  0.29124925    -0.06600
C1064       C  0.47333694  0.03486958  0.28167256    -0.17700
C1065       C  0.44521899  0.01868393  0.26348828     0.10600
C1066       C  0.43416112  0.05721486  0.25538711    -0.06500
C1067       C  0.45354910  0.11243702  0.26433399    -0.17700
C1068       C  0.48314864  0.12943088  0.28157164     0.10700
S1069       S  0.42386479  0.44851968  0.25076618    -0.32700
S1070       S  0.50719614  0.20161568  0.29117713    -0.32700
H1071       H  0.54069522  0.21038498  0.28106764     0.28700
H1072       H  0.44531654  0.43015467  0.26415124     0.28700
H1073       H  0.48097595  0.00465459  0.28831018     0.19300
H1074       H  0.44557207  0.14244147  0.25786512     0.19300
C1075       C  0.65584648  0.41003179  0.25624558    -0.06600
C1076       C  0.66539924  0.36705978  0.25651604    -0.17700
C1077       C  0.65508411  0.32969518  0.27549903     0.10600
C1078       C  0.63395536  0.33456644  0.29436125    -0.06500
C1079       C  0.62285540  0.37514593  0.29325155    -0.17700
C1080       C  0.63314489  0.41215277  0.27464421     0.10700
S1081       S  0.33967927  0.28214655  0.27655480    -0.32700
S1082       S  0.61329716  0.45762185  0.27423732    -0.32700
H1083       H  0.60683785  0.45768752  0.29907975     0.28700
H1084       H  0.67744175  0.28113104  0.30045197     0.28700
H1085       H  0.34898543  0.36466736  0.24290706     0.19300
H1086       H  0.60473137  0.37676199  0.30680702     0.19300
C1087       C  0.66170954  0.07662123  0.25057237    -0.06600
C1088       C  0.68458195  0.11290495  0.26943918    -0.17700
C1089       C  0.66954851  0.12922407  0.28830158     0.10600
C1090       C  0.63082404  0.10974672  0.28795390    -0.06500
C1091       C  0.60882911  0.08000490  0.26759327    -0.17700
C1092       C  0.62343206  0.06251810  0.24896532     0.10700
S1093       S  0.36684448  0.16763103  0.31429858    -0.32700
S1094       S  0.58932076  0.01406205  0.22697934    -0.32700
H1095       H  0.60627538  0.98059136  0.22348692     0.28700
H1096       H  0.67629980  0.14298225  0.33135460     0.28700
H1097       H  0.38012136  0.12375738  0.27119332     0.19300
H1098       H  0.57922348  0.06667435  0.26705878     0.19300
C1099       C  0.62235529  0.34696366  0.08077967    -0.06600
C1100       C  0.58973298  0.33271438  0.09324673    -0.17700
C1101       C  0.58105772  0.29880699  0.11334932     0.10600
C1102       C  0.60545654  0.27894348  0.12102301    -0.06500
C1103       C  0.63857910  0.29485917  0.10899494    -0.17700
C1104       C  0.64738307  0.32873269  0.08907920     0.10700
S1105       S  0.53812863  0.27871726  0.12847184    -0.32700
S1106       S  0.69032724  0.34557135  0.07462081    -0.32700
H1107       H  0.34276943  0.34734968  0.04980588     0.28700
H1108       H  0.52667528  0.31132005  0.11506394     0.28700
H1109       H  0.57094413  0.34768456  0.08701597     0.19300
H1110       H  0.65711959  0.27909720  0.11458558     0.19300
C1111       C  0.43863410  0.07537363  0.08363512    -0.06600
C1112       C  0.47025515  0.07298502  0.07713585    -0.17700
C1113       C  0.50183429  0.09298930  0.09268594     0.10600
C1114       C  0.50191874  0.11578333  0.11644584    -0.06500
C1115       C  0.46928963  0.11788447  0.12231024    -0.17700
C1116       C  0.43759969  0.09641973  0.10677741     0.10700
S1117       S  0.54099502  0.09252099  0.07879049    -0.32700
S1118       S  0.39674750  0.09750874  0.11749552    -0.32700
H1119       H  0.37115468  0.05000069  0.10384384     0.28700
H1120       H  0.52068234  0.04521509  0.06340974     0.28700
H1121       H  0.47102335  0.05854910  0.05887474     0.19300
H1122       H  0.46850902  0.13943586  0.13833031     0.19300
C1123       C  0.64880862  0.09637022  0.08222355    -0.06600
C1124       C  0.61516777  0.05549659  0.09089189    -0.17700
C1125       C  0.59730832  0.06792450  0.10923070     0.10600
C1126       C  0.61450427  0.12266453  0.11980519    -0.06500
C1127       C  0.64942529  0.16202573  0.11240741    -0.17700
C1128       C  0.66660599  0.15000106  0.09359540     0.10700
S1129       S  0.55186818  0.01228330  0.11635189    -0.32700
S1130       S  0.37831664  0.20563575  0.08548079    -0.32700
H1131       H  0.39433979  0.17139333  0.08097018     0.28700
H1132       H  0.54028725  0.04471213  0.12968758     0.28700
H1133       H  0.60174646  0.01404660  0.08248739     0.19300
H1134       H  0.66312191  0.20306234  0.12108206     0.19300
C1135       C  0.61934573  0.12109096  0.17413138    -0.06600
C1136       C  0.61096419  0.06587530  0.16878430    -0.17700
C1137       C  0.63232896  0.04232630  0.17804146     0.10600
C1138       C  0.66115352  0.07268231  0.19555143    -0.06500
C1139       C  0.66972402  0.12819653  0.20117961    -0.17700
C1140       C  0.64991553  0.15274891  0.19033333     0.10700
S1141       S  0.61893532  0.97106081  0.16947013    -0.32700
S1142       S  0.66558945  0.22487425  0.19741660    -0.32700
H1143       H  0.66580908  0.23705177  0.17286643     0.28700
H1144       H  0.58805446  0.46042695  0.15413111     0.28700
H1145       H  0.58653219  0.04000099  0.15795146     0.19300
H1146       H  0.69177840  0.15261594  0.21447712     0.13900
C1147       C  0.50234021  0.11440082  0.17457400    -0.06600
C1148       C  0.48387258  0.14431250  0.18106160    -0.17700
C1149       C  0.45095303  0.11994692  0.19383925     0.10600
C1150       C  0.43619977  0.06444167  0.20086320    -0.06500
C1151       C  0.45651506  0.03618455  0.19643602    -0.17700
C1152       C  0.48939314  0.06057834  0.18342085     0.10700
S1153       S  0.42852613  0.16060858  0.20157220    -0.32700
S1154       S  0.51484049  0.02306514  0.17856749    -0.32700
H1155       H  0.49416173  0.97902713  0.19373758     0.28700
H1156       H  0.45374389  0.20985445  0.19074412     0.28700
H1157       H  0.49434123  0.18619425  0.17491510     0.19300
H1158       H  0.44649874  0.99484377  0.20306497     0.19300
C1159       C  0.61387803  0.28748346  0.17638589    -0.06600
C1160       C  0.64987024  0.32666834  0.16991946    -0.17700
C1161       C  0.66959306  0.37980736  0.18130612     0.10600
C1162       C  0.65333001  0.39557695  0.20007322    -0.06500
C1163       C  0.61719061  0.35657555  0.20649609    -0.17700
C1164       C  0.59793412  0.30273975  0.19550204     0.10700
S1165       S  0.71610001  0.42526910  0.17206899    -0.32700
S1166       S  0.55294504  0.25505571  0.20607890    -0.32700
H1167       H  0.55438063  0.28616041  0.22700624     0.28700
H1168       H  0.38403533  0.39174122  0.15331120     0.28700
H1169       H  0.66316090  0.31495891  0.15609231     0.19300
H1170       H  0.60379645  0.36847887  0.22025442     0.19300
C1171       C  0.55836488  0.43721562  0.95143653    -0.06600
C1172       C  0.55640554  0.40249835  0.93185062    -0.17700
C1173       C  0.52742369  0.38357909  0.91425656     0.10600
C1174       C  0.49984513  0.40070168  0.91600798    -0.06500
C1175       C  0.50400251  0.43970362  0.93429698    -0.17700
C1176       C  0.53270369  0.45787278  0.95206543     0.10700
S1177       S  0.52444704  0.33084135  0.89287707    -0.32700
S1178       S  0.53451520  0.00696526  0.97490344    -0.32700
H1179       H  0.53947553  0.97798645  0.99409987     0.28700
H1180       H  0.48554475  0.29881339  0.89232156     0.28700
H1181       H  0.57632619  0.38708591  0.93109431     0.19300
H1182       H  0.48335943  0.45360318  0.93557919     0.19300
C1183       C  0.39628597  0.23753781  0.92094261    -0.06600
C1184       C  0.35926654  0.19406469  0.91959996    -0.17700
C1185       C  0.34472800  0.15701281  0.93844512     0.10600
C1186       C  0.36785231  0.16318010  0.95895894    -0.06500
C1187       C  0.40495772  0.20398909  0.95960430    -0.17700
C1188       C  0.41955611  0.24017628  0.94090444     0.10700
S1189       S  0.62950900  0.10517690  0.93627899    -0.32700
S1190       S  0.46884217  0.28544358  0.94263497    -0.32700
H1191       H  0.47512152  0.28228930  0.96752379     0.28700
H1192       H  0.62368435  0.10551569  0.96120046     0.28700
H1193       H  0.34085168  0.19063871  0.90451354     0.19300
H1194       H  0.42316007  0.20608670  0.97462695     0.19300
C1195       C  0.35266099  0.41658582  0.96180243    -0.06600
C1196       C  0.33496539  0.36203984  0.95210077    -0.17700
C1197       C  0.34921124  0.34627880  0.93254480     0.10600
C1198       C  0.38267077  0.38574323  0.92235182    -0.06500
C1199       C  0.40065161  0.44030884  0.93209915    -0.17700
C1200       C  0.38608685  0.45606089  0.95162290     0.10700
S1201       S  0.65415409  0.27532378  0.92010167    -0.32700
S1202       S  0.41286554  0.52578258  0.96399394    -0.32700
H1203       H  0.41399873  0.50699664  0.98731278     0.28700
H1204       H  0.33788831  0.28059570  0.89901491     0.28700
H1205       H  0.64102034  0.33158255  0.95800167     0.19300
H1206       H  0.42689711  0.47033360  0.92500421     0.19300
C1207       C  0.34333034  0.44669322  0.84115438    -0.06600
C1208       C  0.38024954  0.46048161  0.83656334    -0.17700
C1209       C  0.39901060  0.43692889  0.84919333     0.10600
C1210       C  0.38066386  0.39668089  0.86665517    -0.06500
C1211       C  0.34363583  0.38292149  0.87130128    -0.17700
C1212       C  0.32492854  0.40741624  0.85891703     0.10700
S1213       S  0.44731341  0.46368709  0.84331463    -0.32700
S1214       S  0.60961592  0.38345257  0.86320165    -0.32700
H1215       H  0.60476427  0.34238066  0.87970786     0.28700
H1216       H  0.45768742  0.47171832  0.86809622     0.28700
H1217       H  0.39511705  0.49111023  0.82331050     0.19300
H1218       H  0.32882267  0.35180986  0.88420660     0.19300
C1219       C  0.38298734  0.22552683  0.86507317    -0.06600
C1220       C  0.39423760  0.18504816  0.86897114    -0.17700
C1221       C  0.37572565  0.13213026  0.85734645     0.10600
C1222       C  0.34463331  0.11789103  0.84148839    -0.06500
C1223       C  0.33342998  0.15837649  0.83759031    -0.17700
C1224       C  0.35207742  0.21161150  0.84903719     0.10700
S1225       S  0.39469130  0.08601753  0.86222586    -0.32700
S1226       S  0.66779392  0.25941945  0.84352997    -0.32700
H1227       H  0.30843666  0.22877746  0.82510834     0.28700
H1228       H  0.39459352  0.07479855  0.83732212     0.28700
H1229       H  0.41816536  0.19511392  0.88093762     0.19300
H1230       H  0.64242380  0.14744546  0.82561819     0.19300
C1231       C  0.56239976  0.45019771  0.83714029    -0.06600
C1232       C  0.53413998  0.39657120  0.82984557    -0.17700
C1233       C  0.49987617  0.37089477  0.84115012     0.10600
C1234       C  0.49354928  0.39837094  0.86098138    -0.06500
C1235       C  0.52136465  0.45286329  0.86754906    -0.17700
C1236       C  0.55517661  0.47878296  0.85595130     0.10700
S1237       S  0.46655990  0.30222344  0.82997040    -0.32700
S1238       S  0.58689549  0.54963633  0.86508684    -0.32700
H1239       H  0.59069495  0.06609893  0.83948311     0.28700
H1240       H  0.46006026  0.27970814  0.85292534     0.28700
H1241       H  0.53902058  0.37387869  0.81539148     0.19300
H1242       H  0.51666227  0.47592020  0.88191941     0.19300
C1243       C  0.56644623  0.45470188  0.78165288    -0.06600
C1244       C  0.54074610  0.47455140  0.78386174    -0.17700
C1245       C  0.51437467  0.46515122  0.76525237     0.10600
C1246       C  0.51338073  0.43494170  0.74402852    -0.06500
C1247       C  0.53722566  0.41209082  0.74240615    -0.17700
C1248       C  0.56343436  0.42105472  0.76104099     0.10700
S1249       S  0.48295527  0.99216141  0.76922142    -0.32700
S1250       S  0.59094242  0.38606037  0.75878035    -0.32700
H1251       H  0.57772883  0.36097720  0.73563538     0.28700
H1252       H  0.48537232  0.01060844  0.74550117     0.28700
H1253       H  0.54243650  0.99948482  0.79938583     0.19300
H1254       H  0.53467109  0.38622038  0.72664467     0.19300
C1255       C  0.37432590  0.19124195  0.75146754    -0.06600
C1256       C  0.33647526  0.16930630  0.75582847    -0.17700
C1257       C  0.31989092  0.12952990  0.77339258     0.10600
C1258       C  0.34172864  0.11187908  0.78697118    -0.06500
C1259       C  0.38012290  0.13684722  0.78376408    -0.17700
C1260       C  0.39664316  0.17619828  0.76608318     0.10700
S1261       S  0.27091268  0.10142564  0.77821939    -0.32700
S1262       S  0.44584259  0.20341335  0.76214463    -0.32700
H1263       H  0.45235239  0.25497370  0.75338710     0.28700
H1264       H  0.59691372  0.13268250  0.76100087     0.28700
H1265       H  0.31971631  0.18176058  0.74476489     0.19300
H1266       H  0.39700010  0.12369415  0.79432463     0.19300
C1267       C  0.37589809  0.42180190  0.74657310    -0.06600
C1268       C  0.35394942  0.38287967  0.76343781    -0.17700
C1269       C  0.33770263  0.39790676  0.78236555     0.10600
C1270       C  0.34484970  0.45369568  0.78501396    -0.06500
C1271       C  0.36789820  0.49247915  0.76873605    -0.17700
C1272       C  0.38207429  0.47717020  0.74922490     0.10700
S1273       S  0.30598474  0.34482293  0.80157822    -0.32700
S1274       S  0.40525689  0.53016803  0.72754306    -0.32700
H1275       H  0.38813753  0.49400851  0.70725831     0.28700
H1276       H  0.30476154  0.29904082  0.78879003     0.28700
H1277       H  0.34930270  0.34059614  0.76166474     0.19300
H1278       H  0.37313612  0.03504197  0.76985394     0.19300
C1279       C  0.48353042  0.27334857  0.45804914    -0.06600
C1280       C  0.46090764  0.23733049  0.43901934    -0.17700
C1281       C  0.47601753  0.22099913  0.42027594     0.10600
C1282       C  0.51463846  0.23987514  0.42082525    -0.06500
C1283       C  0.53663493  0.27037208  0.44111858    -0.17700
C1284       C  0.52181590  0.28770930  0.45974664     0.10700
S1285       S  0.44508579  0.18056943  0.39525780    -0.32700
S1286       S  0.55523806  0.33379047  0.48264394    -0.32700
H1287       H  0.53777295  0.36604573  0.48746898     0.28700
H1288       H  0.46961140  0.21065034  0.37721534     0.28700
H1289       H  0.43149067  0.22514563  0.43782517     0.19300
H1290       H  0.56621621  0.28354968  0.44178737     0.19300
C1291       C  0.37704992  0.28870900  0.44998336    -0.06600
C1292       C  0.37754490  0.32935515  0.43487140    -0.17700
C1293       C  0.34912450  0.31730196  0.41753321     0.10600
C1294       C  0.65298217  0.26110065  0.41413207    -0.06500
C1295       C  0.65286819  0.22022545  0.42925231    -0.17700
C1296       C  0.34802408  0.23350852  0.44674003     0.10700
S1297       S  0.35080887  0.37609157  0.40242932    -0.32700
S1298       S  0.34732584  0.17886887  0.46464535    -0.32700
H1299       H  0.31223653  0.13662744  0.45609206     0.28700
H1300       H  0.64531538  0.35927082  0.40689726     0.28700
H1301       H  0.39967204  0.37187224  0.43734877     0.19300
H1302       H  0.63114190  0.17754918  0.42652112     0.19300
C1303       C  0.48517300  0.43744168  0.45098559    -0.06600
C1304       C  0.46974986  0.47313767  0.44780865    -0.17700
C1305       C  0.48058936  0.51057779  0.42882594     0.10600
C1306       C  0.50619440  0.01109562  0.41223320    -0.06500
C1307       C  0.52119773  0.97547600  0.41528710    -0.17700
C1308       C  0.51304320  0.44154714  0.43534689     0.10700
S1309       S  0.45867819  0.55376033  0.42577927    -0.32700
S1310       S  0.53514094  0.89945741  0.43764359    -0.32700
H1311       H  0.56268356  0.42479158  0.42096185     0.28700
H1312       H  0.46085302  0.55749331  0.40051954     0.28700
H1313       H  0.44827669  0.47042596  0.45960758     0.19300
H1314       H  0.54147372  0.97673175  0.40276549     0.19300
C1315       C  0.52961612  0.22666288  0.59025858    -0.06600
C1316       C  0.49126953  0.20835159  0.58761718    -0.17700
C1317       C  0.47299307  0.22486152  0.60438430     0.10600
C1318       C  0.49336197  0.25977172  0.62454308    -0.06500
C1319       C  0.53175893  0.27949072  0.62682393    -0.17700
C1320       C  0.55006048  0.26308481  0.61006402     0.10700
S1321       S  0.42394186  0.20254486  0.59947613    -0.32700
S1322       S  0.59956196  0.28984452  0.61418843    -0.32700
H1323       H  0.60502892  0.32340371  0.63506970     0.28700
H1324       H  0.41862037  0.17129745  0.57785023     0.28700
H1325       H  0.47551946  0.18018564  0.57260589     0.19300
H1326       H  0.54716772  0.30644682  0.64224980     0.19300
C1327       C  0.35704367  0.24079496  0.62606557    -0.06600
C1328       C  0.36020571  0.28145484  0.60969480    -0.17700
C1329       C  0.66682490  0.26846595  0.59107524     0.10600
C1330       C  0.63683985  0.21379088  0.58794815    -0.06500
C1331       C  0.63495744  0.17304183  0.60367431    -0.17700
C1332       C  0.66098464  0.18537222  0.62270494     0.10700
S1333       S  0.34072966  0.32662438  0.57214731    -0.32700
S1334       S  0.65649777  0.12797447  0.64019635    -0.32700
H1335       H  0.64645876  0.14738867  0.66094909     0.28700
H1336       H  0.63504094  0.30517785  0.56717415     0.28700
H1337       H  0.38242411  0.32390107  0.61228886     0.19300
H1338       H  0.61240771  0.13090615  0.60132318     0.19300
C1339       C  0.52371291  0.06344499  0.58352428    -0.06600
C1340       C  0.49247858  0.05904486  0.59517076    -0.17700
C1341       C  0.47528008  0.01972312  0.61267349     0.10600
C1342       C  0.49090160  0.48638947  0.61984550    -0.06500
C1343       C  0.52050507  0.48803142  0.60712970    -0.17700
C1344       C  0.53693957  0.02544800  0.58901060     0.10700
S1345       S  0.43367151  0.01498550  0.62521616    -0.32700
S1346       S  0.57617445  0.02525223  0.57521497    -0.32700
H1347       H  0.57123025  0.04446357  0.55310114     0.28700
H1348       H  0.41706168  0.95767639  0.62934302     0.28700
H1349       H  0.48171208  0.08720896  0.59081275     0.19300
H1350       H  0.53211662  0.46133433  0.61222778     0.19300
C1351       C  0.52486179  0.23314733  0.53542956    -0.06600
C1352       C  0.49394511  0.19897945  0.52026017    -0.17700
C1353       C  0.47144703  0.21907769  0.50952094     0.10600
C1354       C  0.48025123  0.27562291  0.51339980    -0.06500
C1355       C  0.50929104  0.30846061  0.53017382    -0.17700
C1356       C  0.53237806  0.28866360  0.54036191     0.10700
S1357       S  0.43117627  0.16933565  0.49180506    -0.32700
S1358       S  0.57387720  0.33833509  0.55680066    -0.32700
H1359       H  0.59631089  0.32248691  0.54358262     0.28700
H1360       H  0.41269302  0.20100076  0.49187941     0.28700
H1361       H  0.48673125  0.15573045  0.51715957     0.19300
H1362       H  0.51675272  0.35182681  0.53319212     0.19300
C1363       C  0.52197129  0.06256763  0.52816347    -0.06600
C1364       C  0.48529813  0.02376744  0.53342432    -0.17700
C1365       C  0.46709729  0.47001201  0.52275911     0.10600
C1366       C  0.48603456  0.45340297  0.50623856    -0.06500
C1367       C  0.52231062  0.49297056  0.50036156    -0.17700
C1368       C  0.54006377  0.04711115  0.51054916     0.10700
S1369       S  0.42023791  0.42298623  0.53094117    -0.32700
S1370       S  0.58653785  0.09508639  0.50193905    -0.32700
H1371       H  0.59026681  0.05984360  0.48469342     0.28700
H1372       H  0.41448093  0.46103109  0.54521901     0.28700
H1373       H  0.47074479  0.03603363  0.54615925     0.19300
H1374       H  0.53723766  0.48068946  0.48792282     0.19300
C1375       C  0.63795706  0.22513902  0.53149359    -0.06600
C1376       C  0.64244651  0.26735685  0.51576298    -0.17700
C1377       C  0.34294262  0.29834125  0.50313286     0.10600
C1378       C  0.37224995  0.28491581  0.50612338    -0.06500
C1379       C  0.36710267  0.24196788  0.52148190    -0.17700
C1380       C  0.66755716  0.21216227  0.53407382     0.10700
S1381       S  0.34636169  0.35549516  0.48573185    -0.32700
S1382       S  0.66433025  0.15338110  0.54996421    -0.32700
H1383       H  0.62551933  0.12489100  0.54986812     0.28700
H1384       H  0.38505085  0.38268522  0.48328753     0.28700
H1385       H  0.62034274  0.27819894  0.51365379     0.19300
H1386       H  0.38897687  0.23071783  0.52374350     0.19300
C1387       C  0.56298744  0.67571033  0.53477401     0.45000
H1388       H  0.56174978  0.67791943  0.51478732    -0.04000
C1389       C  0.56511602  0.67080313  0.58154543     0.45100
H1390       H  0.56545710  0.66814919  0.60156653    -0.04000
C1391       C  0.60334980  0.70015145  0.54612118    -0.17700
C1392       C  0.54535142  0.70779664  0.54802057    -0.17500
C1393       C  0.54193196  0.61516401  0.54383150    -0.17800
C1394       C  0.60376809  0.69743433  0.57100243    -0.17800
C1395       C  0.54693927  0.70495993  0.57276236    -0.17400
C1396       C  0.54361880  0.61364033  0.56865471    -0.17700
C1397       C  0.44789533  0.83079421  0.45870001     0.45000
H1398       H  0.44826967  0.82721813  0.43866815    -0.04000
C1399       C  0.44672850  0.83934521  0.50541052     0.45100
H1400       H  0.44634428  0.84259566  0.52541176    -0.04000
C1401       C  0.46610683  0.80101104  0.47209907    -0.17700
C1402       C  0.46848873  0.89101500  0.46826842    -0.17500
C1403       C  0.40842778  0.80663679  0.46791280    -0.17800
C1404       C  0.46487981  0.80373625  0.49680455    -0.17800
C1405       C  0.46796012  0.89686622  0.49305985    -0.17400
C1406       C  0.40728791  0.81073828  0.49268458    -0.17700
O1407       O  0.39090894  0.69983893  0.71101548    -0.81300
O1408       O  0.47052456  0.90162514  0.64046086    -0.66000
O1409       O  0.44269626  0.79991926  0.69164628    -1.12600
C1410       C  0.39452825  0.90526415  0.72779961     1.05600
O1411       O  0.47589424  0.97645589  0.66075449    -0.79200
O1412       O  0.48968682  0.94937844  0.70689162    -0.66800
Ni1413     Ni  0.41898208  0.72234793  0.68207702     1.34900
C1414       C  0.48436814  0.91856749  0.72489664     0.84300
O1415       O  0.48713686  0.82254108  0.65183550    -0.79800
O1416       O  0.44576033  0.73271410  0.65270776    -0.90000
C1417       C  0.47831399  0.95229085  0.64157749     0.83900
O1418       O  0.37979793  0.72661949  0.66442291    -0.68300
O1419       O  0.42464723  0.94323930  0.72005408    -0.87500
C1420       C  0.38528738  0.75725939  0.64636897     0.84700
C1421       C  0.47445754  0.77251289  0.64419508     1.06300
H1422       H  0.40421600  0.86810427  0.67037258     0.38100
O1423       O  0.42586750  0.87658888  0.68064233    -1.10200
O1424       O  0.45382462  0.87451262  0.72785758    -0.66800
Ni1425     Ni  0.41188845  0.82653158  0.70652686     1.26300
O1426       O  0.41555316  0.80235138  0.64432684    -0.67100
O1427       O  0.38171169  0.85478597  0.72073841    -0.79400
C1428       C  0.38851623  0.72411858  0.73019715     0.84100
O1429       O  0.39825169  0.77542082  0.73180322    -0.66500
Ni1430     Ni  0.44979599  0.95391664  0.69025291     1.27400
Ni1431     Ni  0.45689238  0.85037099  0.66587967     1.26100
H1432       H  0.46435494  0.80834623  0.70189876     0.38600
C1433       C  0.63801026  0.50362841  0.83667770     0.45000
H1434       H  0.63805692  0.50375104  0.85673093    -0.04000
C1435       C  0.63825388  0.50419891  0.78980981     0.45100
H1436       H  0.63853031  0.50548172  0.76974763    -0.04000
C1437       C  0.59806840  0.97565699  0.82395579    -0.17700
C1438       C  0.65868118  0.56327897  0.82654417    -0.17500
C1439       C  0.65750156  0.97216483  0.82572099    -0.17800
C1440       C  0.59912513  0.97531709  0.79911199    -0.17800
C1441       C  0.65749500  0.56235833  0.80180346    -0.17400
C1442       C  0.32513312  0.97378041  0.80136347    -0.17700
C1443       C  0.41890928  0.83831459  0.86734495     0.45000
H1444       H  0.41544524  0.83611463  0.84734273    -0.04000
C1445       C  0.42702719  0.84427442  0.91414107     0.45100
H1446       H  0.43028700  0.84766061  0.93419640    -0.04000
C1447       C  0.40270936  0.78000552  0.87914374    -0.17700
C1448       C  0.46036773  0.87067067  0.87660607    -0.17500
C1449       C  0.39947756  0.86852639  0.87992497    -0.17800
C1450       C  0.40862624  0.78433527  0.90400908    -0.17800
C1451       C  0.46404207  0.87405098  0.90140684    -0.17400
C1452       C  0.40248459  0.86840595  0.90473037    -0.17700
C1453       C  0.57507127  0.67290535  0.12533156     0.45000
H1454       H  0.57698163  0.67700177  0.10563643    -0.04000
C1455       C  0.57631567  0.67311625  0.17219564     0.45100
H1456       H  0.57678489  0.67276505  0.19225188    -0.04000
C1457       C  0.53567862  0.64145388  0.13449505    -0.17700
C1458       C  0.59571085  0.64383047  0.13606777    -0.17500
C1459       C  0.59269210  0.73102283  0.13720127    -0.17800
C1460       C  0.53616547  0.64138618  0.15982786    -0.17800
C1461       C  0.59789309  0.64489803  0.16081274    -0.17400
C1462       C  0.59397198  0.73281518  0.16200927    -0.17700
C1463       C  0.36129243  0.50922203  0.20192817     0.45000
H1464       H  0.36157896  0.50731384  0.18191027    -0.04000
C1465       C  0.36152409  0.51614556  0.24879840     0.45100
H1466       H  0.36221965  0.01976480  0.26892021    -0.04000
C1467       C  0.40093009  0.53676222  0.21429210    -0.17700
C1468       C  0.34348140  0.54465745  0.21131788    -0.17500
C1469       C  0.33954401  0.95163249  0.21391581    -0.17800
C1470       C  0.40059955  0.53867719  0.23899362    -0.17800
C1471       C  0.34373712  0.54766647  0.23609168    -0.17400
C1472       C  0.33943714  0.95655861  0.23884513    -0.17700
O1473       O  0.52274013  0.53009689  0.37174138    -0.81300
O1474       O  0.60857857  0.74569559  0.31079600    -0.66000
O1475       O  0.57869201  0.63338133  0.35689354    -1.12600
C1476       C  0.53282114  0.73066039  0.40020816     1.05600
O1477       O  0.61625643  0.81679671  0.33474654    -0.79200
O1478       O  0.62764095  0.77784768  0.37754422    -0.66800
Ni1479     Ni  0.55342014  0.55833352  0.34395734     1.34900
C1480       C  0.62278265  0.74558269  0.39478723     0.84300
O1481       O  0.62400562  0.66575407  0.31799568    -0.79800
O1482       O  0.58257580  0.57575793  0.31525730    -0.90000
C1483       C  0.61932627  0.79668549  0.31451668     0.83900
O1484       O  0.51546218  0.56730441  0.32698483    -0.68300
O1485       O  0.56272322  0.77162635  0.39352215    -0.87500
C1486       C  0.52128857  0.60304308  0.31101848     0.84700
C1487       C  0.61201451  0.61772545  0.30855619     1.06300
H1488       H  0.54173534  0.70767934  0.34102911     0.38100
O1489       O  0.56336349  0.71345952  0.35069316    -1.10200
O1490       O  0.59196332  0.70086969  0.39668462    -0.66800
Ni1491     Ni  0.54932302  0.65786448  0.37424284     1.26300
O1492       O  0.55206191  0.64805827  0.31050132    -0.67100
O1493       O  0.51973588  0.68265699  0.39046728    -0.79400
C1494       C  0.52161304  0.55012661  0.39252858     0.84100
O1495       O  0.53496202  0.60159430  0.39707191    -0.66500
Ni1496     Ni  0.58870967  0.78846013  0.36350803     1.27400
Ni1497     Ni  0.59356177  0.68961095  0.33367071     1.26100
H1498       H  0.60018182  0.63863549  0.36659733     0.38600
O1499       O  0.36895603  0.64654176  0.00087233    -0.81300
O1500       O  0.65452528  0.93404202  0.06335450    -0.66000
O1501       O  0.36229541  0.54525153  0.01666598    -1.12600
C1502       C  0.58508874  0.94691699  0.97175263     1.05600
O1503       O  0.61281980  0.86226064  0.04022314    -0.79200
O1504       O  0.64860069  0.89627479  0.99642147    -0.66800
Ni1505     Ni  0.38696171  0.62146462  0.02796256     1.34900
C1506       C  0.33269055  0.93105417  0.98012218     0.84300
O1507       O  0.38847819  0.51498497  0.05728894    -0.79800
O1508       O  0.40938559  0.60672246  0.05616047    -0.90000
C1509       C  0.63038076  0.88349520  0.06031759     0.83900
O1510       O  0.34687501  0.61558885  0.04619279    -0.68300
O1511       O  0.58861787  0.90590812  0.97913458    -0.87500
C1512       C  0.66486703  0.58021013  0.06236757     0.84700
C1513       C  0.41006060  0.56456379  0.06489379     1.06300
H1514       H  0.61223210  0.97320644  0.03153734     0.38100
O1515       O  0.62926149  0.96589754  0.02233097    -1.10200
O1516       O  0.33084023  0.97580336  0.97750574    -0.66800
Ni1517     Ni  0.65057909  0.51988067  0.99830986     1.26300
O1518       O  0.66326882  0.53270420  0.06229747    -0.67100
O1519       O  0.60438035  0.99537576  0.98092809    -0.79400
C1520       C  0.35706156  0.62608669  0.97957932     0.84100
O1521       O  0.33881578  0.57459901  0.97501224    -0.66500
Ni1522     Ni  0.60421384  0.88999030  0.01011464     1.27400
Ni1523     Ni  0.34228450  0.99016535  0.03993627     1.26100
H1524       H  0.37986503  0.53903490  0.00765499     0.38600
C1525       C  0.49220926  0.58956973  0.29140814    -0.06600
C1526       C  0.47321651  0.53463415  0.28190762    -0.17700
C1527       C  0.44508572  0.51836162  0.26369849     0.10600
C1528       C  0.43407592  0.55688055  0.25548333    -0.06500
C1529       C  0.45351990  0.61215328  0.26438247    -0.17700
C1530       C  0.48314798  0.62922599  0.28162512     0.10700
S1531       S  0.42391556  0.94882405  0.25058487    -0.32700
S1532       S  0.50735351  0.70152206  0.29105084    -0.32700
H1533       H  0.54084922  0.70994320  0.28105555     0.28700
H1534       H  0.44801025  0.93246546  0.26203919     0.28700
H1535       H  0.48091258  0.50449996  0.28856570     0.19300
H1536       H  0.44559633  0.64216492  0.25784759     0.19300
C1537       C  0.65542407  0.90988809  0.25613284    -0.06600
C1538       C  0.66575795  0.86778142  0.25677097    -0.17700
C1539       C  0.65554172  0.83065018  0.27582922     0.10600
C1540       C  0.63330679  0.83438443  0.29420036    -0.06500
C1541       C  0.62119866  0.87376626  0.29260669    -0.17700
C1542       C  0.63182933  0.91108118  0.27410459     0.10700
S1543       S  0.33969269  0.78232998  0.27643659    -0.32700
S1544       S  0.61167670  0.95613173  0.27337354    -0.32700
H1545       H  0.60380648  0.95490748  0.29801910     0.28700
H1546       H  0.67865056  0.78454135  0.30172864     0.28700
H1547       H  0.34916977  0.86514724  0.24286879     0.19300
H1548       H  0.60231157  0.87446947  0.30579990     0.19300
C1549       C  0.66190346  0.57671478  0.25061820    -0.06600
C1550       C  0.68483784  0.61321866  0.26941655    -0.17700
C1551       C  0.66987112  0.62981028  0.28824859     0.10600
C1552       C  0.63113768  0.61031728  0.28796710    -0.06500
C1553       C  0.60908815  0.58034034  0.26766741    -0.17700
C1554       C  0.62360055  0.56253228  0.24909736     0.10700
S1555       S  0.36656904  0.66961211  0.31338674    -0.32700
S1556       S  0.58929800  0.51333853  0.22742843    -0.32700
H1557       H  0.60635852  0.47995971  0.22412478     0.28700
H1558       H  0.67696881  0.64383397  0.33125214     0.28700
H1559       H  0.37986645  0.62429118  0.27071545     0.19300
H1560       H  0.57947479  0.56695381  0.26717357     0.19300
C1561       C  0.62254509  0.84774590  0.08118636    -0.06600
C1562       C  0.59071536  0.83513142  0.09431240    -0.17700
C1563       C  0.58209404  0.80098656  0.11435620     0.10600
C1564       C  0.60573303  0.77921252  0.12129086    -0.06500
C1565       C  0.63831407  0.79402256  0.10878177    -0.17700
C1566       C  0.64701091  0.82798432  0.08889517     0.10700
S1567       S  0.54015459  0.78306230  0.13033062    -0.32700
S1568       S  0.68908110  0.84303596  0.07369576    -0.32700
H1569       H  0.34565151  0.85167184  0.05164595     0.28700
H1570       H  0.52992326  0.81831961  0.11793669     0.28700
H1571       H  0.57241880  0.85139689  0.08859588     0.19300
H1572       H  0.65646148  0.77730156  0.11396214     0.19300
C1573       C  0.43829151  0.57490667  0.08411955    -0.06600
C1574       C  0.46976184  0.57194945  0.07763580    -0.17700
C1575       C  0.50152439  0.59225366  0.09307692     0.10600
C1576       C  0.50191228  0.61574410  0.11671533    -0.06500
C1577       C  0.46953133  0.61857930  0.12254327    -0.17700
C1578       C  0.43768335  0.59692026  0.10714070     0.10700
S1579       S  0.54063845  0.59148720  0.07925088    -0.32700
S1580       S  0.39718559  0.59907955  0.11786730    -0.32700
H1581       H  0.37122466  0.55151529  0.10440635     0.28700
H1582       H  0.52029868  0.54451727  0.06369967     0.28700
H1583       H  0.47029844  0.55693558  0.05944903     0.19300
H1584       H  0.46912292  0.64090797  0.13841926     0.19300
C1585       C  0.64886330  0.59562525  0.08265197    -0.06600
C1586       C  0.61536136  0.55479803  0.09149436    -0.17700
C1587       C  0.59748323  0.56751993  0.10973012     0.10600
C1588       C  0.61459822  0.62246554  0.12008658    -0.06500
C1589       C  0.64951559  0.66168747  0.11263907    -0.17700
C1590       C  0.66663858  0.64943341  0.09386503     0.10700
S1591       S  0.55208832  0.51196173  0.11694284    -0.32700
S1592       S  0.37744063  0.70570122  0.08497951    -0.32700
H1593       H  0.39378604  0.67167779  0.08102152     0.28700
H1594       H  0.54031043  0.54472403  0.12983600     0.28700
H1595       H  0.60198315  0.51320231  0.08323988     0.19300
H1596       H  0.66326073  0.70278622  0.12124303     0.19300
C1597       C  0.61932431  0.62099697  0.17433414    -0.06600
C1598       C  0.61026189  0.56535984  0.16939533    -0.17700
C1599       C  0.63159176  0.54163666  0.17853810     0.10600
C1600       C  0.66101202  0.57233479  0.19562755    -0.06500
C1601       C  0.67012494  0.62818231  0.20095293    -0.17700
C1602       C  0.65052745  0.65294842  0.19001778     0.10700
S1603       S  0.61772408  0.46999653  0.17033731    -0.32700
S1604       S  0.66739950  0.72574463  0.19617414    -0.32700
H1605       H  0.66635003  0.73627503  0.17149901     0.28700
H1606       H  0.59384068  0.96499093  0.15032531     0.28700
H1607       H  0.58549370  0.53951867  0.15886594     0.19300
H1608       H  0.69252118  0.65276288  0.21401155     0.13900
C1609       C  0.50238609  0.61406783  0.17472884    -0.06600
C1610       C  0.48392218  0.64395601  0.18122591    -0.17700
C1611       C  0.45094374  0.61954018  0.19392421     0.10600
C1612       C  0.43615170  0.56401306  0.20090935    -0.06500
C1613       C  0.45637494  0.53565610  0.19641442    -0.17700
C1614       C  0.48925017  0.56003070  0.18339400     0.10700
S1615       S  0.42848226  0.66017968  0.20159296    -0.32700
S1616       S  0.51457772  0.52237827  0.17845369    -0.32700
H1617       H  0.48990416  0.47351912  0.18977074     0.28700
H1618       H  0.45360416  0.70933706  0.19066354     0.28700
H1619       H  0.49445440  0.68590014  0.17515236     0.19300
H1620       H  0.44633300  0.49432956  0.20306895     0.19300
C1621       C  0.61389154  0.78734875  0.17661656    -0.06600
C1622       C  0.64991198  0.82646284  0.17016983    -0.17700
C1623       C  0.66961031  0.87964072  0.18152009     0.10600
C1624       C  0.65317803  0.89564309  0.20009126    -0.06500
C1625       C  0.61698821  0.85674197  0.20646434    -0.17700
C1626       C  0.59782106  0.80277737  0.19559849     0.10700
S1627       S  0.71613584  0.92513879  0.17232910    -0.32700
S1628       S  0.55281128  0.75511051  0.20616540    -0.32700
H1629       H  0.55328414  0.78747805  0.22636949     0.28700
H1630       H  0.38142751  0.89544652  0.15131397     0.28700
H1631       H  0.66311211  0.81479386  0.15625821     0.19300
H1632       H  0.60352384  0.86881255  0.22010963     0.19300
C1633       C  0.55831157  0.93729211  0.95143447    -0.06600
C1634       C  0.55603002  0.90176988  0.93209643    -0.17700
C1635       C  0.52719476  0.88306394  0.91440266     0.10600
C1636       C  0.49994538  0.90088676  0.91588153    -0.06500
C1637       C  0.50453285  0.94081228  0.93382687    -0.17700
C1638       C  0.53326871  0.95914826  0.95159339     0.10700
S1639       S  0.52386259  0.82969323  0.89327438    -0.32700
S1640       S  0.53304325  0.50365362  0.97603602    -0.32700
H1641       H  0.53920244  0.47472080  0.99476965     0.28700
H1642       H  0.48496730  0.79783093  0.89303226     0.28700
H1643       H  0.57558680  0.88565385  0.93159739     0.19300
H1644       H  0.48423986  0.95544200  0.93482458     0.19300
C1645       C  0.39636240  0.73779630  0.92122894    -0.06600
C1646       C  0.35945863  0.69398689  0.91982660    -0.17700
C1647       C  0.34495136  0.65701718  0.93870715     0.10600
C1648       C  0.36784439  0.66400682  0.95946897    -0.06500
C1649       C  0.40474198  0.70554288  0.96031370    -0.17700
C1650       C  0.41944384  0.74119267  0.94145173     0.10700
S1651       S  0.63036635  0.60333159  0.93573261    -0.32700
S1652       S  0.46873046  0.78639306  0.94327469    -0.32700
H1653       H  0.47473435  0.78444281  0.96829436     0.28700
H1654       H  0.62358552  0.60398411  0.96048838     0.28700
H1655       H  0.34112935  0.69004534  0.90460148     0.19300
H1656       H  0.42282959  0.70833274  0.97553550     0.19300
C1657       C  0.35248162  0.91587848  0.96178218    -0.06600
C1658       C  0.33448152  0.86157644  0.95179057    -0.17700
C1659       C  0.34877703  0.84589286  0.93221701     0.10600
C1660       C  0.38244979  0.88532171  0.92220731    -0.06500
C1661       C  0.40069360  0.93960346  0.93225373    -0.17700
C1662       C  0.38620793  0.95516543  0.95187156     0.10700
S1663       S  0.65471589  0.77463712  0.92083451    -0.32700
S1664       S  0.41353704  0.02426566  0.96477040    -0.32700
H1665       H  0.41360369  0.00439647  0.98800800     0.28700
H1666       H  0.33785084  0.78017924  0.89871584     0.28700
H1667       H  0.64137808  0.83107194  0.95859312     0.19300
H1668       H  0.42713833  0.96950395  0.92535307     0.19300
C1669       C  0.34366619  0.94725427  0.84114927    -0.06600
C1670       C  0.38061279  0.96101079  0.83665811    -0.17700
C1671       C  0.39921726  0.93714838  0.84926074     0.10600
C1672       C  0.38064894  0.89641535  0.86650127    -0.06500
C1673       C  0.34356979  0.88261455  0.87101231    -0.17700
C1674       C  0.32506212  0.90756959  0.85872765     0.10700
S1675       S  0.44764919  0.96430184  0.84374578    -0.32700
S1676       S  0.60969396  0.88493645  0.86401922    -0.32700
H1677       H  0.60587746  0.84793223  0.88233019     0.28700
H1678       H  0.45751416  0.97189207  0.86860384     0.28700
H1679       H  0.39562048  0.99185761  0.82351545     0.19300
H1680       H  0.32859810  0.85123574  0.88377907     0.19300
C1681       C  0.38297171  0.72499454  0.86517144    -0.06600
C1682       C  0.39374698  0.68407975  0.86937183    -0.17700
C1683       C  0.37513408  0.63109711  0.85776915     0.10600
C1684       C  0.34442434  0.61721912  0.84159111    -0.06500
C1685       C  0.33367321  0.65809302  0.83742033    -0.17700
C1686       C  0.35247260  0.71141290  0.84879049     0.10700
S1687       S  0.39351451  0.58442249  0.86310176    -0.32700
S1688       S  0.66735360  0.75872626  0.84393790    -0.32700
H1689       H  0.31028462  0.72956121  0.82382166     0.28700
H1690       H  0.39414796  0.57348872  0.83824626     0.28700
H1691       H  0.41739311  0.69383825  0.88155714     0.19300
H1692       H  0.64250236  0.64706936  0.82571543     0.19300
C1693       C  0.56224891  0.95007967  0.83697345    -0.06600
C1694       C  0.53433725  0.89600043  0.82999269    -0.17700
C1695       C  0.50013607  0.87016802  0.84137034     0.10600
C1696       C  0.49355987  0.89800849  0.86094712    -0.06500
C1697       C  0.52106646  0.95289470  0.86721909    -0.17700
C1698       C  0.55470196  0.97906044  0.85543317     0.10700
S1699       S  0.46724424  0.80087484  0.83062835    -0.32700
S1700       S  0.58567269  0.05073408  0.86372736    -0.32700
H1701       H  0.59196711  0.56656509  0.84106734     0.28700
H1702       H  0.46032469  0.77928107  0.85374549     0.28700
H1703       H  0.53945958  0.87312275  0.81573806     0.19300
H1704       H  0.51619182  0.97612190  0.88142816     0.19300
C1705       C  0.56656465  0.95426339  0.78156416    -0.06600
C1706       C  0.54087776  0.97412949  0.78366673    -0.17700
C1707       C  0.51459654  0.96468867  0.76501025     0.10600
C1708       C  0.51363817  0.93436264  0.74383362    -0.06500
C1709       C  0.53745657  0.91140224  0.74232974    -0.17700
C1710       C  0.56362965  0.92049561  0.76102535     0.10700
S1711       S  0.48272585  0.49259459  0.76954104    -0.32700
S1712       S  0.59104123  0.88529324  0.75903498    -0.32700
H1713       H  0.57976324  0.86319609  0.73526955     0.28700
H1714       H  0.48482050  0.51072532  0.74578348     0.28700
H1715       H  0.54235610  0.49982739  0.79962407     0.19300
H1716       H  0.53485725  0.88525643  0.72666081     0.19300
C1717       C  0.37376977  0.69051528  0.75150618    -0.06600
C1718       C  0.33571869  0.66751041  0.75543931    -0.17700
C1719       C  0.31918732  0.62796333  0.77309658     0.10600
C1720       C  0.34118343  0.61113863  0.78700316    -0.06500
C1721       C  0.37970383  0.63711455  0.78419438    -0.17700
C1722       C  0.39624096  0.67664395  0.76657815     0.10700
S1723       S  0.27013109  0.59937028  0.77775456    -0.32700
S1724       S  0.44571656  0.70557520  0.76329660    -0.32700
H1725       H  0.45163863  0.75669176  0.75433719     0.28700
H1726       H  0.59691975  0.63156854  0.76049645     0.28700
H1727       H  0.31882842  0.67911178  0.74404275     0.19300
H1728       H  0.39671227  0.62469369  0.79504698     0.19300
C1729       C  0.37604228  0.92152835  0.74665667    -0.06600
C1730       C  0.35422524  0.88294395  0.76366189    -0.17700
C1731       C  0.33808745  0.89832107  0.78254572     0.10600
C1732       C  0.34517839  0.95413144  0.78497587    -0.06500
C1733       C  0.36801087  0.99253417  0.76848643    -0.17700
C1734       C  0.38208453  0.97684485  0.74903571     0.10700
S1735       S  0.30620653  0.84548389  0.80177982    -0.32700
S1736       S  0.40493549  0.02921152  0.72704144    -0.32700
H1737       H  0.38799885  0.99236938  0.70693297     0.28700
H1738       H  0.31050043  0.80114642  0.79208146     0.28700
H1739       H  0.34947414  0.84060233  0.76195357     0.19300
H1740       H  0.37311080  0.53502208  0.77032118     0.19300
C1741       C  0.48277459  0.77258532  0.45790129    -0.06600
C1742       C  0.46019241  0.73639951  0.43890538    -0.17700
C1743       C  0.47538629  0.72013267  0.42018116     0.10600
C1744       C  0.51405145  0.73928993  0.42071918    -0.06500
C1745       C  0.53601191  0.76998634  0.44099382    -0.17700
C1746       C  0.52111385  0.78731288  0.45957834     0.10700
S1747       S  0.44448885  0.67939931  0.39520339    -0.32700
S1748       S  0.55454261  0.83468591  0.48215859    -0.32700
H1749       H  0.53692713  0.86696992  0.48645252     0.28700
H1750       H  0.46890746  0.70957305  0.37712964     0.28700
H1751       H  0.43075193  0.72405769  0.43771540     0.19300
H1752       H  0.56564263  0.78353047  0.44162991     0.19300
C1753       C  0.37643630  0.78886455  0.45023221    -0.06600
C1754       C  0.37663102  0.82980477  0.43545105    -0.17700
C1755       C  0.34822669  0.81780698  0.41811063     0.10600
C1756       C  0.65303548  0.76152309  0.41382521    -0.06500
C1757       C  0.65271227  0.72054391  0.42898233    -0.17700
C1758       C  0.34774886  0.73354062  0.44670340     0.10700
S1759       S  0.34955097  0.87671061  0.40332731    -0.32700
S1760       S  0.34771155  0.67866208  0.46410366    -0.32700
H1761       H  0.31286299  0.63611790  0.45534882     0.28700
H1762       H  0.64669233  0.86097674  0.40626574     0.28700
H1763       H  0.39856424  0.87241183  0.43814291     0.19300
H1764       H  0.63079495  0.67798476  0.42630821     0.19300
C1765       C  0.48467267  0.93671719  0.45067944    -0.06600
C1766       C  0.46999155  0.97350194  0.44802608    -0.17700
C1767       C  0.48062434  0.01092336  0.42902503     0.10600
C1768       C  0.50704293  0.51173018  0.41254331    -0.06500
C1769       C  0.52301835  0.47752766  0.41624994    -0.17700
C1770       C  0.51146727  0.93953101  0.43436223     0.10700
S1771       S  0.45936978  0.05508360  0.42652209    -0.32700
S1772       S  0.53809179  0.40378896  0.43996655    -0.32700
H1773       H  0.56417534  0.92873420  0.42197193     0.28700
H1774       H  0.46090577  0.05876659  0.40123660     0.28700
H1775       H  0.44919598  0.97163667  0.46023947     0.19300
H1776       H  0.54430305  0.48018772  0.40429792     0.19300
C1777       C  0.52926091  0.72670263  0.59013945    -0.06600
C1778       C  0.49087838  0.70815212  0.58753517    -0.17700
C1779       C  0.47256457  0.72444193  0.60436152     0.10600
C1780       C  0.49293996  0.75928227  0.62453565    -0.06500
C1781       C  0.53137043  0.77939262  0.62671294    -0.17700
C1782       C  0.54969751  0.76322550  0.60990752     0.10700
S1783       S  0.42343961  0.70166964  0.59957038    -0.32700
S1784       S  0.59916367  0.78997110  0.61411750    -0.32700
H1785       H  0.60517296  0.82846197  0.63317251     0.28700
H1786       H  0.41929494  0.67654394  0.57645865     0.28700
H1787       H  0.47510851  0.67983340  0.57256688     0.19300
H1788       H  0.54678549  0.80625309  0.64216394     0.19300
C1789       C  0.35683436  0.74059291  0.62628685    -0.06600
C1790       C  0.35976596  0.78147938  0.61012906    -0.17700
C1791       C  0.66628976  0.76884818  0.59114313     0.10600
C1792       C  0.63650153  0.71404842  0.58790024    -0.06500
C1793       C  0.63477688  0.67324948  0.60353614    -0.17700
C1794       C  0.66091692  0.68555844  0.62249098     0.10700
S1795       S  0.34026942  0.82681517  0.57266344    -0.32700
S1796       S  0.65709754  0.62800530  0.63958970    -0.32700
H1797       H  0.64652305  0.64616883  0.66047260     0.28700
H1798       H  0.63426453  0.80516084  0.56717564     0.28700
H1799       H  0.38181966  0.82400523  0.61287045     0.19300
H1800       H  0.61233842  0.63106672  0.60113141     0.19300
C1801       C  0.52339149  0.56372194  0.58332067    -0.06600
C1802       C  0.49229688  0.55944714  0.59511348    -0.17700
C1803       C  0.47547220  0.52057210  0.61283862     0.10600
C1804       C  0.49066814  0.98556953  0.61979630    -0.06500
C1805       C  0.52037886  0.98725843  0.60718636    -0.17700
C1806       C  0.53686086  0.52607666  0.58888701     0.10700
S1807       S  0.43447516  0.51679583  0.62595923    -0.32700
S1808       S  0.57633329  0.52648923  0.57518752    -0.32700
H1809       H  0.57030555  0.54330310  0.55274252     0.28700
H1810       H  0.41763655  0.45956401  0.63027943     0.28700
H1811       H  0.48148934  0.58758231  0.59079823     0.19300
H1812       H  0.53186424  0.96040365  0.61228726     0.19300
C1813       C  0.52464800  0.73335963  0.53533682    -0.06600
C1814       C  0.49379075  0.69901000  0.52017105    -0.17700
C1815       C  0.47120048  0.71887695  0.50941692     0.10600
C1816       C  0.47993574  0.77539421  0.51322414    -0.06500
C1817       C  0.50896001  0.80845245  0.52995739    -0.17700
C1818       C  0.53205404  0.78882095  0.54024137     0.10700
S1819       S  0.43089135  0.66889298  0.49181262    -0.32700
S1820       S  0.57333284  0.83856516  0.55684971    -0.32700
H1821       H  0.59603179  0.82342008  0.54353677     0.28700
H1822       H  0.41217794  0.70022126  0.49215723     0.28700
H1823       H  0.48666846  0.65578435  0.51711424     0.19300
H1824       H  0.51633064  0.85179656  0.53292729     0.19300
C1825       C  0.52165165  0.56311631  0.52794501    -0.06600
C1826       C  0.48490322  0.52439646  0.53311646    -0.17700
C1827       C  0.46745791  0.96940399  0.52306250     0.10600
C1828       C  0.48607555  0.95307219  0.50615541    -0.06500
C1829       C  0.52232018  0.99266553  0.50022271    -0.17700
C1830       C  0.53982158  0.54762081  0.51041274     0.10700
S1831       S  0.42076890  0.92234807  0.53154816    -0.32700
S1832       S  0.58615613  0.59572061  0.50161180    -0.32700
H1833       H  0.58895889  0.56151378  0.48339576     0.28700
H1834       H  0.41862253  0.95591868  0.55033983     0.28700
H1835       H  0.47036455  0.53663377  0.54587715     0.19300
H1836       H  0.53703962  0.98053036  0.48754813     0.19300
C1837       C  0.63774743  0.72549278  0.53146015    -0.06600
C1838       C  0.64240357  0.76788976  0.51578588    -0.17700
C1839       C  0.34292866  0.79859511  0.50351640     0.10600
C1840       C  0.37215628  0.78498374  0.50634127    -0.06500
C1841       C  0.36709656  0.74202748  0.52167017    -0.17700
C1842       C  0.66715451  0.71210493  0.53395936     0.10700
S1843       S  0.34643251  0.85610817  0.48635965    -0.32700
S1844       S  0.66359767  0.65306092  0.54978249    -0.32700
H1845       H  0.62476030  0.62464586  0.54939658     0.28700
H1846       H  0.38512604  0.88324664  0.48392925     0.28700
H1847       H  0.62043284  0.77903254  0.51374125     0.19300
H1848       H  0.38897782  0.73077664  0.52386533     0.19300
C1849       C  0.89638812  0.17659225  0.53494887     0.45000
H1850       H  0.89514690  0.17892417  0.51496829    -0.04000
C1851       C  0.89859323  0.17134857  0.58170631     0.45100
H1852       H  0.89892958  0.16853901  0.60171919    -0.04000
C1853       C  0.93676109  0.20064575  0.54627039    -0.17700
C1854       C  0.87900066  0.20897438  0.54828717    -0.17500
C1855       C  0.87514062  0.11596074  0.54393378    -0.17800
C1856       C  0.93722676  0.19782468  0.57114610    -0.17800
C1857       C  0.88066877  0.20593060  0.57302377    -0.17400
C1858       C  0.87688653  0.11427376  0.56874357    -0.17700
C1859       C  0.78125134  0.33216903  0.45904097     0.45000
H1860       H  0.78162846  0.32874409  0.43900436    -0.04000
C1861       C  0.78016435  0.34079802  0.50574166     0.45100
H1862       H  0.77983707  0.34422836  0.52574254    -0.04000
C1863       C  0.79981305  0.30275898  0.47238007    -0.17700
C1864       C  0.80159134  0.39241571  0.46855263    -0.17500
C1865       C  0.74174713  0.30744242  0.46832867    -0.17800
C1866       C  0.79860006  0.30548391  0.49712444    -0.17800
C1867       C  0.80110410  0.39828451  0.49331766    -0.17400
C1868       C  0.74063686  0.31174480  0.49309939    -0.17700
O1869       O  0.72558435  0.20074388  0.71127996    -0.81300
O1870       O  0.80391549  0.40214504  0.64030358    -0.66000
O1871       O  0.77622842  0.30088329  0.69166064    -1.12600
C1872       C  0.72673424  0.40502939  0.72695595     1.05600
O1873       O  0.80998515  0.47714652  0.66082143    -0.79200
O1874       O  0.82247721  0.44961056  0.70701339    -0.66800
Ni1875     Ni  0.75303070  0.22336036  0.68214777     1.34900
C1876       C  0.81685699  0.41877875  0.72502563     0.84300
O1877       O  0.82089911  0.32358129  0.65199667    -0.79800
O1878       O  0.77938840  0.23386417  0.65262513    -0.90000
C1879       C  0.81218739  0.45300507  0.64156861     0.83900
O1880       O  0.71348687  0.22728159  0.66479026    -0.68300
O1881       O  0.75698281  0.44323752  0.71944393    -0.87500
C1882       C  0.71866012  0.25759825  0.64664449     0.84700
C1883       C  0.80823604  0.27364779  0.64427945     1.06300
H1884       H  0.73763393  0.36871996  0.66990675     0.38100
O1885       O  0.75914360  0.37710900  0.68030394    -1.10200
O1886       O  0.78618086  0.37487697  0.72787113    -0.66800
Ni1887     Ni  0.74479821  0.32690448  0.70612864     1.26300
O1888       O  0.74896745  0.30253451  0.64431428    -0.67100
O1889       O  0.71411546  0.35464170  0.71986243    -0.79400
C1890       C  0.72208391  0.22486144  0.73013655     0.84100
O1891       O  0.73066375  0.27574765  0.73138744    -0.66500
Ni1892     Ni  0.78298111  0.45433646  0.68997824     1.27400
Ni1893     Ni  0.79035608  0.35108635  0.66579691     1.26100
H1894       H  0.79782048  0.30968125  0.70204788     0.38600
C1895       C  0.97109738  0.00437621  0.83635509     0.45000
H1896       H  0.97103231  0.00432051  0.85640643    -0.04000
C1897       C  0.97147353  0.00531898  0.78948627     0.45100
H1898       H  0.97175055  0.00670588  0.76942590    -0.04000
C1899       C  0.93142417  0.47649644  0.82365350    -0.17700
C1900       C  0.99166639  0.06417452  0.82633576    -0.17500
C1901       C  0.99091353  0.47311915  0.82531074    -0.17800
C1902       C  0.93242655  0.47627880  0.79880201    -0.17800
C1903       C  0.99053057  0.06341315  0.80157668    -0.17400
C1904       C  0.65777922  0.47336061  0.80067116    -0.17700
C1905       C  0.75219806  0.33820188  0.86701892     0.45000
H1906       H  0.74878318  0.33590917  0.84701023    -0.04000
C1907       C  0.76001624  0.34401636  0.91383217     0.45100
H1908       H  0.76310311  0.34720336  0.93389738    -0.04000
C1909       C  0.73581993  0.27988699  0.87884671    -0.17700
C1910       C  0.79365149  0.37048273  0.87638969    -0.17500
C1911       C  0.73276879  0.36855860  0.87947182    -0.17800
C1912       C  0.74158837  0.28408615  0.90370201    -0.17800
C1913       C  0.79717190  0.37377216  0.90121904    -0.17400
C1914       C  0.73563559  0.36838165  0.90429410    -0.17700
C1915       C  0.90861285  0.17410163  0.12508335     0.45000
H1916       H  0.91056560  0.17835061  0.10540511    -0.04000
C1917       C  0.90978824  0.17421675  0.17194415     0.45100
H1918       H  0.91025339  0.17381204  0.19199895    -0.04000
C1919       C  0.86923176  0.14240053  0.13426560    -0.17700
C1920       C  0.92931792  0.14514878  0.13579578    -0.17500
C1921       C  0.92617193  0.23216974  0.13696491    -0.17800
C1922       C  0.86969090  0.14228067  0.15959390    -0.17800
C1923       C  0.93147795  0.14625852  0.16055240    -0.17400
C1924       C  0.92731842  0.23387282  0.16177773    -0.17700
C1925       C  0.69526448  0.00903803  0.20198166     0.45000
H1926       H  0.69564263  0.00702614  0.18197266    -0.04000
C1927       C  0.69544667  0.01624482  0.24884461     0.45100
H1928       H  0.69630982  0.51983772  0.26888095    -0.04000
C1929       C  0.73487868  0.03641622  0.21439613    -0.17700
C1930       C  0.67757162  0.04473502  0.21125403    -0.17500
C1931       C  0.67346815  0.45101737  0.21393760    -0.17800
C1932       C  0.73452489  0.03851231  0.23909697    -0.17800
C1933       C  0.67784226  0.04790146  0.23603585    -0.17400
C1934       C  0.67343816  0.45621553  0.23888594    -0.17700
O1935       O  0.85643180  0.03138705  0.37204776    -0.81300
O1936       O  0.94253718  0.24688778  0.31096823    -0.66000
O1937       O  0.91239735  0.13472667  0.35725227    -1.12600
C1938       C  0.86616646  0.23218076  0.40009664     1.05600
O1939       O  0.95033683  0.31802202  0.33492014    -0.79200
O1940       O  0.96118858  0.27914069  0.37778577    -0.66800
Ni1941     Ni  0.88739611  0.05956419  0.34442503     1.34900
C1942       C  0.95619927  0.24697572  0.39507756     0.84300
O1943       O  0.95798771  0.16698113  0.31845664    -0.79800
O1944       O  0.91676796  0.07687860  0.31587513    -0.90000
C1945       C  0.95343245  0.29794662  0.31468778     0.83900
O1946       O  0.84949767  0.06809440  0.32716429    -0.68300
O1947       O  0.89613829  0.27307619  0.39345101    -0.87500
C1948       C  0.85529428  0.10379562  0.31118759     0.84700
C1949       C  0.94608493  0.11889968  0.30910478     1.06300
H1950       H  0.87554496  0.20896610  0.34103723     0.38100
O1951       O  0.89709494  0.21473922  0.35078538    -1.10200
O1952       O  0.92531921  0.20232007  0.39696086    -0.66800
Ni1953     Ni  0.88282225  0.15919937  0.37439788     1.26300
O1954       O  0.88598118  0.14899664  0.31071738    -0.67100
O1955       O  0.85307905  0.18411470  0.39040168    -0.79400
C1956       C  0.85494981  0.05134838  0.39276274     0.84100
O1957       O  0.86815297  0.10283383  0.39727972    -0.66500
Ni1958     Ni  0.92241707  0.28978224  0.36354935     1.27400
Ni1959     Ni  0.92739847  0.19083921  0.33393592     1.26100
H1960       H  0.93384070  0.14014484  0.36705075     0.38600
O1961       O  0.70317839  0.14592892  0.00035362    -0.81300
O1962       O  0.98905501  0.43652873  0.06334439    -0.66000
O1963       O  0.69600606  0.04457783  0.01658261    -1.12600
C1964       C  0.91811616  0.44778740  0.97198458     1.05600
O1965       O  0.94676710  0.36464401  0.04053871    -0.79200
O1966       O  0.98239875  0.39845996  0.99658812    -0.66800
Ni1967     Ni  0.72082826  0.12096107  0.02767920     1.34900
C1968       C  0.66643493  0.43070326  0.98008678     0.84300
O1969       O  0.72211827  0.01471417  0.05732707    -0.79800
O1970       O  0.74303953  0.10642808  0.05601053    -0.90000
C1971       C  0.96471806  0.38602937  0.06050150     0.83900
O1972       O  0.68076728  0.11565511  0.04585600    -0.68300
O1973       O  0.92210006  0.40717052  0.97935412    -0.87500
C1974       C  0.99859148  0.08148552  0.06213982     0.84700
C1975       C  0.74368040  0.06433522  0.06483132     1.06300
H1976       H  0.94595034  0.47505880  0.03181543     0.38100
O1977       O  0.96289406  0.46781415  0.02248012    -1.10200
O1978       O  0.66488056  0.47572422  0.97767450    -0.66800
Ni1979     Ni  0.98326591  0.02041206  0.99786143     1.26300
O1980       O  0.99661910  0.03375577  0.06187128    -0.67100
O1981       O  0.93717914  0.49636798  0.98112875    -0.79400
C1982       C  0.69080932  0.12508616  0.97916352     0.84100
O1983       O  0.67224842  0.07353689  0.97481571    -0.66500
Ni1984     Ni  0.93795548  0.39184460  0.01036595     1.27400
Ni1985     Ni  0.67563752  0.48934979  0.04020872     1.26100
H1986       H  0.71350339  0.03813798  0.00757848     0.38600
C1987       C  0.82622062  0.09009212  0.29154747    -0.06600
C1988       C  0.80753740  0.03521887  0.28194125    -0.17700
C1989       C  0.77929558  0.01870086  0.26378146     0.10600
C1990       C  0.76799876  0.05695580  0.25563385    -0.06500
C1991       C  0.78708620  0.11213775  0.26468751    -0.17700
C1992       C  0.81671936  0.12943153  0.28194169     0.10700
S1993       S  0.75777741  0.44858290  0.25121671    -0.32700
S1994       S  0.84030322  0.20155152  0.29166379    -0.32700
H1995       H  0.87407118  0.21091192  0.28178822     0.28700
H1996       H  0.77572457  0.42830650  0.26688352     0.28700
H1997       H  0.81555256  0.00534007  0.28848740     0.19300
H1998       H  0.77887375  0.14191967  0.25827059     0.19300
C1999       C  0.98900602  0.41108824  0.25618503    -0.06600
C2000       C  0.99889714  0.36847592  0.25653563    -0.17700
C2001       C  0.98881905  0.33126126  0.27557017     0.10600
C2002       C  0.96751960  0.33584698  0.29439200    -0.06500
C2003       C  0.95616920  0.37618762  0.29322383    -0.17700
C2004       C  0.96621766  0.41304860  0.27454830     0.10700
S2005       S  0.67135701  0.27913271  0.27523021    -0.32700
S2006       S  0.94614718  0.45831199  0.27393460    -0.32700
H2007       H  0.93625527  0.45476163  0.29823652     0.28700
H2008       H  0.01152134  0.28326292  0.30063153     0.28700
H2009       H  0.68218917  0.36386372  0.24242434     0.19300
H2010       H  0.93803845  0.37767878  0.30679377     0.19300
C2011       C  0.99543651  0.07844747  0.25073789    -0.06600
C2012       C  0.01853555  0.11472425  0.26954820    -0.17700
C2013       C  0.00373667  0.13101670  0.28856886     0.10600
C2014       C  0.96502580  0.11151501  0.28844103    -0.06500
C2015       C  0.94280514  0.08182665  0.26815066    -0.17700
C2016       C  0.95716744  0.06439170  0.24936922     0.10700
S2017       S  0.70074442  0.17101478  0.31296873    -0.32700
S2018       S  0.92278640  0.01614575  0.22747095    -0.32700
H2019       H  0.93957517  0.98250449  0.22382626     0.28700
H2020       H  0.01100586  0.14429587  0.33159170     0.28700
H2021       H  0.71399149  0.12512923  0.27045786     0.19300
H2022       H  0.91320436  0.06851763  0.26777799     0.19300
C2023       C  0.95694171  0.35043728  0.08142815    -0.06600
C2024       C  0.92388079  0.33512404  0.09354851    -0.17700
C2025       C  0.91480880  0.30036093  0.11337591     0.10600
C2026       C  0.93913918  0.28042025  0.12108213    -0.06500
C2027       C  0.97271558  0.29739391  0.10944687    -0.17700
C2028       C  0.98208386  0.33251806  0.08991227     0.10700
S2029       S  0.87136210  0.27906459  0.12800848    -0.32700
S2030       S  0.02592584  0.35122950  0.07625580    -0.32700
H2031       H  0.67816488  0.34953873  0.05112106     0.28700
H2032       H  0.86096854  0.31403469  0.11552738     0.28700
H2033       H  0.90497159  0.34977190  0.08719880     0.19300
H2034       H  0.99127323  0.28168500  0.11509379     0.19300
C2035       C  0.77188391  0.07478942  0.08401370    -0.06600
C2036       C  0.80356336  0.07263687  0.07741129    -0.17700
C2037       C  0.83534360  0.09326245  0.09281097     0.10600
C2038       C  0.83550290  0.11629237  0.11651753    -0.06500
C2039       C  0.80284193  0.11814942  0.12249392    -0.17700
C2040       C  0.77100062  0.09619847  0.10710271     0.10700
S2041       S  0.87464728  0.09332168  0.07885169    -0.32700
S2042       S  0.73019580  0.09734832  0.11789020    -0.32700
H2043       H  0.70449320  0.05001651  0.10418832     0.28700
H2044       H  0.85456101  0.04659390  0.06312923     0.28700
H2045       H  0.80421097  0.05800531  0.05916811     0.19300
H2046       H  0.80217061  0.13989926  0.13849702     0.19300
C2047       C  0.98260932  0.09683678  0.08246331    -0.06600
C2048       C  0.94903620  0.05606309  0.09124533    -0.17700
C2049       C  0.93110937  0.06881686  0.10943900     0.10600
C2050       C  0.94819906  0.12379876  0.11978464    -0.06500
C2051       C  0.98307944  0.16307567  0.11229041    -0.17700
C2052       C  0.00035343  0.15065463  0.09365638     0.10700
S2053       S  0.88564749  0.01326930  0.11655236    -0.32700
S2054       S  0.71108091  0.20523999  0.08528117    -0.32700
H2055       H  0.72719200  0.17094510  0.08118708     0.28700
H2056       H  0.87383527  0.04607254  0.12936373     0.28700
H2057       H  0.93564305  0.01448003  0.08297578     0.19300
H2058       H  0.99667578  0.20435183  0.12074127     0.19300
C2059       C  0.95285890  0.12249595  0.17413713    -0.06600
C2060       C  0.94400615  0.06702437  0.16908865    -0.17700
C2061       C  0.96516819  0.04329502  0.17843150     0.10600
C2062       C  0.99437454  0.07399608  0.19565251    -0.06500
C2063       C  0.00331911  0.12972386  0.20106899    -0.17700
C2064       C  0.98364992  0.15434471  0.19013560     0.10700
S2065       S  0.95134232  0.97165092  0.17025742    -0.32700
S2066       S  0.99982810  0.22678390  0.19675980    -0.32700
H2067       H  0.99989602  0.23815245  0.17211388     0.28700
H2068       H  0.91860164  0.46049159  0.15604041     0.28700
H2069       H  0.91949641  0.04129897  0.15832102     0.19300
H2070       H  0.02559242  0.15426115  0.21421701     0.13900
C2071       C  0.83597764  0.11454954  0.17453918    -0.06600
C2072       C  0.81752791  0.14426592  0.18135181    -0.17700
C2073       C  0.78485715  0.11970826  0.19435272     0.10600
C2074       C  0.77007627  0.06397604  0.20102328    -0.06500
C2075       C  0.79024656  0.03570762  0.19617428    -0.17700
C2076       C  0.82301941  0.06040632  0.18305635     0.10700
S2077       S  0.76272999  0.16039339  0.20276071    -0.32700
S2078       S  0.84845876  0.02304141  0.17782879    -0.32700
H2079       H  0.82403361  0.97406020  0.18916930     0.28700
H2080       H  0.79044281  0.21165187  0.19483932     0.28700
H2081       H  0.82778525  0.18617769  0.17529638     0.19300
H2082       H  0.78030025  0.99427039  0.20268259     0.19300
C2083       C  0.94705802  0.28828138  0.17644302    -0.06600
C2084       C  0.98306946  0.32746240  0.17007354    -0.17700
C2085       C  0.00262114  0.38059524  0.18140566     0.10600
C2086       C  0.98621493  0.39633083  0.20007183    -0.06500
C2087       C  0.95012886  0.35721114  0.20652894    -0.17700
C2088       C  0.93101410  0.30335475  0.19556028     0.10700
S2089       S  0.04918552  0.42589670  0.17228561    -0.32700
S2090       S  0.88615152  0.25544038  0.20621770    -0.32700
H2091       H  0.88804708  0.28586775  0.22748505     0.28700
H2092       H  0.71611258  0.39275297  0.15207374     0.28700
H2093       H  0.99656568  0.31576367  0.15639190     0.19300
H2094       H  0.93666774  0.36902082  0.22027863     0.19300
C2095       C  0.89111742  0.43754596  0.95170789    -0.06600
C2096       C  0.88939491  0.40277205  0.93220249    -0.17700
C2097       C  0.86067319  0.38387294  0.91439402     0.10600
C2098       C  0.83296874  0.40082299  0.91588632    -0.06500
C2099       C  0.83686906  0.43979269  0.93412870    -0.17700
C2100       C  0.86538771  0.45811241  0.95205655     0.10700
S2101       S  0.85808644  0.33121879  0.89312187    -0.32700
S2102       S  0.86566062  0.00357476  0.97555056    -0.32700
H2103       H  0.87113222  0.97389188  0.99424494     0.28700
H2104       H  0.81920309  0.29898192  0.89241739     0.28700
H2105       H  0.90935717  0.38741568  0.93163131     0.19300
H2106       H  0.81617380  0.45360667  0.93523919     0.19300
C2107       C  0.72936139  0.23730292  0.92084137    -0.06600
C2108       C  0.69227647  0.19396095  0.91972301    -0.17700
C2109       C  0.67801026  0.15675945  0.93858158     0.10600
C2110       C  0.70145628  0.16267898  0.95889507    -0.06500
C2111       C  0.73855282  0.20337523  0.95930888    -0.17700
C2112       C  0.75291189  0.23963824  0.94059525     0.10700
S2113       S  0.96296512  0.10487674  0.93539215    -0.32700
S2114       S  0.80210040  0.28564516  0.94226373    -0.32700
H2115       H  0.81101823  0.27145847  0.96483223     0.28700
H2116       H  0.95626386  0.10504616  0.96018151     0.28700
H2117       H  0.67368036  0.19062502  0.90476635     0.19300
H2118       H  0.75680662  0.20563142  0.97431452     0.19300
C2119       C  0.68598151  0.41553454  0.96158897    -0.06600
C2120       C  0.66747504  0.36166552  0.95115982    -0.17700
C2121       C  0.68166648  0.34612911  0.93148768     0.10600
C2122       C  0.71561161  0.38541122  0.92171165    -0.06500
C2123       C  0.73426403  0.43933838  0.93213381    -0.17700
C2124       C  0.71999212  0.45463188  0.95194803     0.10700
S2125       S  0.98758427  0.27621842  0.92078731    -0.32700
S2126       S  0.74794018  0.52296554  0.96547698    -0.32700
H2127       H  0.74644735  0.50198393  0.98865460     0.28700
H2128       H  0.67124442  0.28031569  0.89807903     0.28700
H2129       H  0.97480166  0.33279898  0.95879412     0.19300
H2130       H  0.76091094  0.46906517  0.92542389     0.19300
C2131       C  0.67655584  0.44646473  0.84032179    -0.06600
C2132       C  0.71356563  0.46040719  0.83586177    -0.17700
C2133       C  0.73233175  0.43687868  0.84859291     0.10600
C2134       C  0.71385571  0.39625745  0.86591081    -0.06500
C2135       C  0.67668666  0.38216259  0.87029322    -0.17700
C2136       C  0.65801789  0.40669854  0.85787016     0.10700
S2137       S  0.78082234  0.46427069  0.84314738    -0.32700
S2138       S  0.94282373  0.38530662  0.86329517    -0.32700
H2139       H  0.93888855  0.34818693  0.88157835     0.28700
H2140       H  0.79065972  0.47149560  0.86800652     0.28700
H2141       H  0.72850436  0.49119518  0.82268199     0.19300
H2142       H  0.66174162  0.35084796  0.88307078     0.19300
C2143       C  0.71601689  0.22491900  0.86492493    -0.06600
C2144       C  0.72725851  0.18439833  0.86876110    -0.17700
C2145       C  0.70876788  0.13154999  0.85703791     0.10600
C2146       C  0.67749842  0.11726616  0.84133635    -0.06500
C2147       C  0.66624152  0.15772535  0.83759180    -0.17700
C2148       C  0.68506884  0.21103002  0.84893145     0.10700
S2149       S  0.72803346  0.08567457  0.86151490    -0.32700
S2150       S  0.00235216  0.26123238  0.84228144    -0.32700
H2151       H  0.64349147  0.22987503  0.82375258     0.28700
H2152       H  0.72744619  0.07438610  0.83657016     0.28700
H2153       H  0.75125142  0.19446217  0.88066321     0.19300
H2154       H  0.97666030  0.14922398  0.82477739     0.19300
C2155       C  0.89561730  0.45062752  0.83673488    -0.06600
C2156       C  0.86775306  0.39652708  0.82970706    -0.17700
C2157       C  0.83358060  0.37041159  0.84112813     0.10600
C2158       C  0.82693051  0.39801011  0.86077848    -0.06500
C2159       C  0.85440584  0.45287903  0.86712753    -0.17700
C2160       C  0.88804917  0.47929686  0.85533262     0.10700
S2161       S  0.80083694  0.30107149  0.83033574    -0.32700
S2162       S  0.91906835  0.55083390  0.86389631    -0.32700
H2163       H  0.92449907  0.06675588  0.83942207     0.28700
H2164       H  0.79360277  0.27948345  0.85344461     0.28700
H2165       H  0.87289992  0.37383866  0.81537963     0.19300
H2166       H  0.84949678  0.47591295  0.88140656     0.19300
C2167       C  0.89976413  0.45519375  0.78131204    -0.06600
C2168       C  0.87373694  0.47439198  0.78368885    -0.17700
C2169       C  0.84705746  0.46445417  0.76522808     0.10600
C2170       C  0.84606114  0.43433642  0.74398171    -0.06500
C2171       C  0.87032552  0.41224095  0.74215494    -0.17700
C2172       C  0.89692113  0.42187157  0.76062379     0.10700
S2173       S  0.81606040  0.99347360  0.76921466    -0.32700
S2174       S  0.92501742  0.38786013  0.75809402    -0.32700
H2175       H  0.91558407  0.36963155  0.73372482     0.28700
H2176       H  0.81774046  0.01070457  0.74532967     0.28700
H2177       H  0.87565670  0.00072077  0.79929830     0.19300
H2178       H  0.86779427  0.38637691  0.72639403     0.19300
C2179       C  0.70754778  0.19159139  0.75153640    -0.06600
C2180       C  0.66981717  0.17035521  0.75613346    -0.17700
C2181       C  0.65321082  0.13057161  0.77369056     0.10600
C2182       C  0.67489439  0.11209894  0.78690948    -0.06500
C2183       C  0.71323049  0.13661087  0.78357325    -0.17700
C2184       C  0.72978864  0.17614260  0.76598725     0.10700
S2185       S  0.60440741  0.10337881  0.77894360    -0.32700
S2186       S  0.77898070  0.20341517  0.76201961    -0.32700
H2187       H  0.78547971  0.25537203  0.75374993     0.28700
H2188       H  0.93058507  0.13466721  0.76065778     0.28700
H2189       H  0.65314491  0.18324468  0.74522890     0.19300
H2190       H  0.73001357  0.12301661  0.79396537     0.19300
C2191       C  0.70792163  0.42090416  0.74565762    -0.06600
C2192       C  0.68626322  0.38230043  0.76270593    -0.17700
C2193       C  0.67026386  0.39769714  0.78165639     0.10600
C2194       C  0.67754108  0.45358392  0.78415461    -0.06500
C2195       C  0.70009329  0.49189154  0.76754275    -0.17700
C2196       C  0.71378554  0.47608771  0.74795570     0.10700
S2197       S  0.63832266  0.34485676  0.80087633    -0.32700
S2198       S  0.73592932  0.52807327  0.72569813    -0.32700
H2199       H  0.71924904  0.49062499  0.70574488     0.28700
H2200       H  0.64119956  0.29991621  0.79042636     0.28700
H2201       H  0.68159851  0.33999933  0.76101249     0.19300
H2202       H  0.70555554  0.03492790  0.76908912     0.19300
C2203       C  0.81631546  0.27420745  0.45797531    -0.06600
C2204       C  0.79378151  0.23917109  0.43864173    -0.17700
C2205       C  0.80891261  0.22319577  0.41976627     0.10600
C2206       C  0.84738259  0.24095656  0.42056330    -0.06500
C2207       C  0.86919152  0.27027561  0.44110283    -0.17700
C2208       C  0.85444945  0.28763086  0.45978089     0.10700
S2209       S  0.77832111  0.18476900  0.39428234    -0.32700
S2210       S  0.88794039  0.33263410  0.48287840    -0.32700
H2211       H  0.87111906  0.36577653  0.48769691     0.28700
H2212       H  0.80367078  0.21484062  0.37662193     0.28700
H2213       H  0.76447057  0.22760282  0.43731152     0.19300
H2214       H  0.89865245  0.28263862  0.44192427     0.19300
C2215       C  0.70968097  0.28893747  0.45065336    -0.06600
C2216       C  0.70998085  0.32933469  0.43548637    -0.17700
C2217       C  0.68163149  0.31685178  0.41807600     0.10600
C2218       C  0.98640463  0.26294771  0.41415639    -0.06500
C2219       C  0.98592521  0.22198370  0.42937673    -0.17700
C2220       C  0.68076523  0.23361008  0.44754368     0.10700
S2221       S  0.68291264  0.37537035  0.40295730    -0.32700
S2222       S  0.68016230  0.17939394  0.46571136    -0.32700
H2223       H  0.64504976  0.13700176  0.45727902     0.28700
H2224       H  0.98073809  0.36286125  0.40604950     0.28700
H2225       H  0.73193550  0.37198071  0.43794561     0.19300
H2226       H  0.96397540  0.17944568  0.42670074     0.19300
C2227       C  0.81810841  0.43818612  0.45099699    -0.06600
C2228       C  0.80260808  0.47366269  0.44739938    -0.17700
C2229       C  0.81379401  0.51100809  0.42835347     0.10600
C2230       C  0.84007469  0.01270757  0.41269393    -0.06500
C2231       C  0.85561888  0.97790038  0.41625723    -0.17700
C2232       C  0.84615327  0.44210331  0.43556888     0.10700
S2233       S  0.79159215  0.55366312  0.42470362    -0.32700
S2234       S  0.86966205  0.90271150  0.43924075    -0.32700
H2235       H  0.88521738  0.40908541  0.41732676     0.28700
H2236       H  0.79467932  0.55773690  0.39949827     0.28700
H2237       H  0.78083143  0.47087803  0.45892505     0.19300
H2238       H  0.87719651  0.98074727  0.40451686     0.19300
C2239       C  0.86309525  0.22762455  0.59046728    -0.06600
C2240       C  0.82476584  0.20929760  0.58777137    -0.17700
C2241       C  0.80646037  0.22571455  0.60451801     0.10600
C2242       C  0.82680693  0.26050387  0.62469706    -0.06500
C2243       C  0.86518723  0.28025920  0.62703826    -0.17700
C2244       C  0.88351363  0.26391898  0.61030948     0.10700
S2245       S  0.75742003  0.20343525  0.59956155    -0.32700
S2246       S  0.93292443  0.29024849  0.61467434    -0.32700
H2247       H  0.93882017  0.32763963  0.63418064     0.28700
H2248       H  0.75200420  0.17148439  0.57814193     0.28700
H2249       H  0.80906301  0.18122751  0.57272240     0.19300
H2250       H  0.88053509  0.30698276  0.64253975     0.19300
C2251       C  0.68981261  0.24061117  0.62677133    -0.06600
C2252       C  0.69277317  0.28095723  0.61028857    -0.17700
C2253       C  0.99978910  0.26955543  0.59119442     0.10600
C2254       C  0.97002719  0.21469319  0.58804053    -0.06500
C2255       C  0.96829726  0.17418268  0.60384068    -0.17700
C2256       C  0.99434960  0.18679313  0.62288180     0.10700
S2257       S  0.67290804  0.32558576  0.57274436    -0.32700
S2258       S  0.98967576  0.12965116  0.64063344    -0.32700
H2259       H  0.97979884  0.14970323  0.66126639     0.28700
H2260       H  0.96731337  0.30546236  0.56738893     0.28700
H2261       H  0.71505242  0.32340788  0.61270018     0.19300
H2262       H  0.94576895  0.13203461  0.60159692     0.19300
C2263       C  0.85675624  0.06410496  0.58329999    -0.06600
C2264       C  0.82511960  0.05870541  0.59474831    -0.17700
C2265       C  0.80814198  0.01918736  0.61222091     0.10600
C2266       C  0.82463375  0.48649985  0.61986772    -0.06500
C2267       C  0.85473157  0.48903114  0.60744863    -0.17700
C2268       C  0.87062259  0.02697319  0.58895133     0.10700
S2269       S  0.76607329  0.01305706  0.62461303    -0.32700
S2270       S  0.91035003  0.02814146  0.57531222    -0.32700
H2271       H  0.90376461  0.04398102  0.55276687     0.28700
H2272       H  0.75014032  0.95583037  0.62879366     0.28700
H2273       H  0.81390542  0.08627009  0.59029288     0.19300
H2274       H  0.86662791  0.46277975  0.61268288     0.19300
C2275       C  0.85828139  0.23478023  0.53569814    -0.06600
C2276       C  0.82756446  0.20066213  0.52036865    -0.17700
C2277       C  0.80496403  0.22059183  0.50965304     0.10600
C2278       C  0.81356500  0.27700354  0.51359068    -0.06500
C2279       C  0.84234075  0.30978442  0.53054339    -0.17700
C2280       C  0.86543603  0.29009237  0.54083426     0.10700
S2281       S  0.76473369  0.17081447  0.49193321    -0.32700
S2282       S  0.90647536  0.33973615  0.55768860    -0.32700
H2283       H  0.92948670  0.32557472  0.54418368     0.28700
H2284       H  0.74578978  0.20181112  0.49270473     0.28700
H2285       H  0.82053283  0.15751926  0.51715644     0.19300
H2286       H  0.84957953  0.35303577  0.53366821     0.19300
C2287       C  0.85477667  0.06390084  0.52801757    -0.06600
C2288       C  0.81798945  0.02526504  0.53316830    -0.17700
C2289       C  0.80037693  0.47125566  0.52288765     0.10600
C2290       C  0.81918253  0.45454027  0.50630580    -0.06500
C2291       C  0.85552165  0.49387729  0.50045302    -0.17700
C2292       C  0.87290167  0.04824504  0.51051285     0.10700
S2293       S  0.75345496  0.42444294  0.53105647    -0.32700
S2294       S  0.91939065  0.09610360  0.50189600    -0.32700
H2295       H  0.92279678  0.06109981  0.48436405     0.28700
H2296       H  0.74811023  0.46228803  0.54576705     0.28700
H2297       H  0.80343131  0.03768064  0.54583356     0.19300
H2298       H  0.87029327  0.48149429  0.48793347     0.19300
C2299       C  0.97115098  0.22603902  0.53162206    -0.06600
C2300       C  0.97581975  0.26858698  0.51603795    -0.17700
C2301       C  0.67569941  0.29813968  0.50369116     0.10600
C2302       C  0.70550113  0.28583399  0.50684123    -0.06500
C2303       C  0.70096523  0.24369385  0.52250570    -0.17700
C2304       C  0.00060539  0.21274365  0.53413051     0.10700
S2305       S  0.67841933  0.35466719  0.48613787    -0.32700
S2306       S  0.99715626  0.15371342  0.54990881    -0.32700
H2307       H  0.95833395  0.12530858  0.54954539     0.28700
H2308       H  0.71713564  0.38272716  0.48381800     0.28700
H2309       H  0.95385165  0.27975428  0.51404342     0.19300
H2310       H  0.72323840  0.23333155  0.52492610     0.19300
C2311       C  0.89659787  0.67652353  0.53500387     0.45000
H2312       H  0.89537214  0.67867131  0.51501367    -0.04000
C2313       C  0.89876328  0.67163490  0.58177349     0.45100
H2314       H  0.89904895  0.66896476  0.60179265    -0.04000
C2315       C  0.93696962  0.70093947  0.54637922    -0.17700
C2316       C  0.87891430  0.70860694  0.54820324    -0.17500
C2317       C  0.87557166  0.61600223  0.54407808    -0.17800
C2318       C  0.93744182  0.69835096  0.57127010    -0.17800
C2319       C  0.88057070  0.70576716  0.57294739    -0.17400
C2320       C  0.87731585  0.61444257  0.56889512    -0.17700
C2321       C  0.78102685  0.83169573  0.45892900     0.45000
H2322       H  0.78141059  0.82824124  0.43889349    -0.04000
C2323       C  0.77992193  0.84024817  0.50563515     0.45100
H2324       H  0.77958053  0.84360556  0.52563724    -0.04000
C2325       C  0.79952659  0.80218365  0.47224616    -0.17700
C2326       C  0.80137161  0.89195057  0.46848542    -0.17500
C2327       C  0.74152465  0.80709538  0.46819316    -0.17800
C2328       C  0.79830915  0.80486237  0.49698505    -0.17800
C2329       C  0.80090579  0.89780575  0.49325707    -0.17400
C2330       C  0.74039810  0.81132662  0.49297196    -0.17700
O2331       O  0.72546325  0.70071082  0.71103060    -0.81300
O2332       O  0.80362528  0.90190652  0.64007270    -0.66000
O2333       O  0.77620451  0.80084092  0.69145264    -1.12600
C2334       C  0.72728462  0.90565193  0.72707291     1.05600
O2335       O  0.81004735  0.97712786  0.66056593    -0.79200
O2336       O  0.82270318  0.95010364  0.70690767    -0.66800
Ni2337     Ni  0.75278476  0.72331612  0.68187222     1.34900
C2338       C  0.81714521  0.91924813  0.72491309     0.84300
O2339       O  0.82063173  0.82339324  0.65170120    -0.79800
O2340       O  0.77897516  0.73374957  0.65228258    -0.90000
C2341       C  0.81195144  0.95276625  0.64129144     0.83900
O2342       O  0.71322084  0.72748541  0.66466900    -0.68300
O2343       O  0.75730039  0.94386673  0.71929679    -0.87500
C2344       C  0.71838667  0.75780808  0.64653127     0.84700
C2345       C  0.80789480  0.77345850  0.64397543     1.06300
H2346       H  0.73763385  0.86883957  0.66993806     0.38100
O2347       O  0.75922406  0.87726243  0.68025770    -1.10200
O2348       O  0.78660589  0.87507793  0.72770376    -0.66800
Ni2349     Ni  0.74503166  0.82710520  0.70611496     1.26300
O2350       O  0.74872777  0.80264703  0.64417025    -0.67100
O2351       O  0.71464982  0.85516214  0.72009052    -0.79400
C2352       C  0.72220261  0.72478557  0.72997964     0.84100
O2353       O  0.73100713  0.77578381  0.73135301    -0.66500
Ni2354     Ni  0.78316468  0.95460363  0.68979846     1.27400
Ni2355     Ni  0.79023744  0.85103388  0.66559939     1.26100
H2356       H  0.79785142  0.80951873  0.70176119     0.38600
C2357       C  0.97118354  0.50459419  0.83635720     0.45000
H2358       H  0.97107897  0.50470727  0.85640730    -0.04000
C2359       C  0.97169274  0.50523300  0.78949511     0.45100
H2360       H  0.97207204  0.50655863  0.76943697    -0.04000
C2361       C  0.93129659  0.97636205  0.82369900    -0.17700
C2362       C  0.99177434  0.56429928  0.82625620    -0.17500
C2363       C  0.99082445  0.97301284  0.82515012    -0.17800
C2364       C  0.93226071  0.97629303  0.79886209    -0.17800
C2365       C  0.99071651  0.56339191  0.80150055    -0.17400
C2366       C  0.65799036  0.97362680  0.80081985    -0.17700
C2367       C  0.75178435  0.83797933  0.86701543     0.45000
H2368       H  0.74817704  0.83554501  0.84701676    -0.04000
C2369       C  0.76000652  0.84413330  0.91380263     0.45100
H2370       H  0.76329942  0.84760574  0.93385572    -0.04000
C2371       C  0.73572649  0.77975176  0.87891728    -0.17700
C2372       C  0.79328729  0.87056695  0.87620893    -0.17500
C2373       C  0.73232963  0.86820671  0.87956471    -0.17800
C2374       C  0.74166341  0.78413733  0.90377349    -0.17800
C2375       C  0.79697925  0.87393617  0.90101123    -0.17400
C2376       C  0.73541987  0.86819506  0.90437906    -0.17700
C2377       C  0.90887012  0.67493057  0.12515283     0.45000
H2378       H  0.91079760  0.67911976  0.10547226    -0.04000
C2379       C  0.91009897  0.67507281  0.17201644     0.45100
H2380       H  0.91055292  0.67469962  0.19207282    -0.04000
C2381       C  0.86951224  0.64289481  0.13431397    -0.17700
C2382       C  0.92989884  0.64647107  0.13587597    -0.17500
C2383       C  0.92610524  0.73295592  0.13703210    -0.17800
C2384       C  0.86999895  0.64271374  0.15964356    -0.17800
C2385       C  0.93200719  0.64743150  0.16062511    -0.17400
C2386       C  0.92738468  0.73475785  0.16183275    -0.17700
C2387       C  0.69530654  0.50895085  0.20194654     0.45000
H2388       H  0.69551390  0.50687548  0.18192869    -0.04000
C2389       C  0.69574323  0.51635762  0.24881158     0.45100
H2390       H  0.69585111  0.01957859  0.26891384    -0.04000
C2391       C  0.73500515  0.53645696  0.21427152    -0.17700
C2392       C  0.67757322  0.54455459  0.21128271    -0.17500
C2393       C  0.67327995  0.95108476  0.21393230    -0.17800
C2394       C  0.73475949  0.53867571  0.23897322    -0.17800
C2395       C  0.67799540  0.54788745  0.23606165    -0.17400
C2396       C  0.67312620  0.95619458  0.23886338    -0.17700
O2397       O  0.85757039  0.53125803  0.37183855    -0.81300
O2398       O  0.94267349  0.74745782  0.31079510    -0.66000
O2399       O  0.91296551  0.63501626  0.35693347    -1.12600
C2400       C  0.86649751  0.73193500  0.40011044     1.05600
O2401       O  0.95107861  0.81852809  0.33502329    -0.79200
O2402       O  0.96160926  0.77918520  0.37790728    -0.66800
Ni2403     Ni  0.88807666  0.55991087  0.34402151     1.34900
C2404       C  0.95659267  0.74666843  0.39506760     0.84300
O2405       O  0.95828007  0.66766471  0.31797314    -0.79800
O2406       O  0.91706316  0.57759164  0.31529874    -0.90000
C2407       C  0.95391537  0.79856263  0.31468424     0.83900
O2408       O  0.84990290  0.56838088  0.32705658    -0.68300
O2409       O  0.89638427  0.77299692  0.39342866    -0.87500
C2410       C  0.85552637  0.60407917  0.31109137     0.84700
C2411       C  0.94632647  0.61967204  0.30852219     1.06300
H2412       H  0.87594942  0.70931881  0.34105002     0.38100
O2413       O  0.89753272  0.71499672  0.35073997    -1.10200
O2414       O  0.92574692  0.70196375  0.39684189    -0.66800
Ni2415     Ni  0.88332971  0.65916949  0.37424080     1.26300
O2416       O  0.88615316  0.64938246  0.31058062    -0.67100
O2417       O  0.85358737  0.68384864  0.39044372    -0.79400
C2418       C  0.85584718  0.55113028  0.39252228     0.84100
O2419       O  0.86874007  0.60256904  0.39700577    -0.66500
Ni2420     Ni  0.92291567  0.78997453  0.36359668     1.27400
Ni2421     Ni  0.92774393  0.69127417  0.33368272     1.26100
H2422       H  0.93448373  0.64050509  0.36666593     0.38600
O2423       O  0.70282717  0.64597339  0.00072556    -0.81300
O2424       O  0.98796581  0.93465025  0.06275877    -0.66000
O2425       O  0.69606035  0.54461991  0.01669705    -1.12600
C2426       C  0.91806386  0.94718762  0.97127248     1.05600
O2427       O  0.94528911  0.86310561  0.03997381    -0.79200
O2428       O  0.98160745  0.89694727  0.99627128    -0.66800
Ni2429     Ni  0.72062518  0.62086657  0.02795337     1.34900
C2430       C  0.66625846  0.93060639  0.98021731     0.84300
O2431       O  0.72215281  0.51443475  0.05737487    -0.79800
O2432       O  0.74293808  0.60614887  0.05620111    -0.90000
C2433       C  0.96335184  0.88434439  0.05991155     0.83900
O2434       O  0.68045392  0.61498209  0.04616324    -0.68300
O2435       O  0.92179803  0.90636278  0.97863079    -0.87500
C2436       C  0.99924109  0.58333127  0.06219309     0.84700
C2437       C  0.74367196  0.56404329  0.06494628     1.06300
H2438       H  0.94523658  0.97397555  0.03120323     0.38100
O2439       O  0.96217718  0.96657532  0.02193876    -1.10200
O2440       O  0.66456725  0.97548703  0.97768291    -0.66800
Ni2441     Ni  0.98352701  0.52151605  0.99831706     1.26300
O2442       O  0.99762874  0.53581648  0.06216627    -0.67100
O2443       O  0.93720294  0.99568854  0.98045289    -0.79400
C2444       C  0.69086543  0.62541877  0.97944316     0.84100
O2445       O  0.67258672  0.57387964  0.97495497    -0.66500
Ni2446     Ni  0.93706823  0.89064573  0.00973950     1.27400
Ni2447     Ni  0.67559172  0.98963878  0.04023735     1.26100
H2448       H  0.71365981  0.53845350  0.00769899     0.38600
C2449       C  0.82636119  0.59026524  0.29148511    -0.06600
C2450       C  0.80736535  0.53520319  0.28210453    -0.17700
C2451       C  0.77917523  0.51866575  0.26390681     0.10600
C2452       C  0.76827398  0.55712735  0.25546391    -0.06500
C2453       C  0.78766271  0.61247361  0.26427921    -0.17700
C2454       C  0.81722484  0.62974589  0.28158866     0.10700
S2455       S  0.75824006  0.94886451  0.25084606    -0.32700
S2456       S  0.84121203  0.70206908  0.29098213    -0.32700
H2457       H  0.87468916  0.71079896  0.28085123     0.28700
H2458       H  0.77812279  0.92960140  0.26532173     0.28700
H2459       H  0.81514959  0.50520127  0.28881128     0.19300
H2460       H  0.77970722  0.64238075  0.25765793     0.19300
C2461       C  0.98946659  0.91163882  0.25616305    -0.06600
C2462       C  0.99996111  0.86969704  0.25678453    -0.17700
C2463       C  0.99010241  0.83280398  0.27594083     0.10600
C2464       C  0.96804899  0.83657752  0.29444090    -0.06500
C2465       C  0.95596354  0.87601392  0.29294136    -0.17700
C2466       C  0.96611710  0.91293744  0.27428116     0.10700
S2467       S  0.67355025  0.78217945  0.27640945    -0.32700
S2468       S  0.94548436  0.95738051  0.27340023    -0.32700
H2469       H  0.93678677  0.95537669  0.29790867     0.28700
H2470       H  0.01302381  0.78631271  0.30180341     0.28700
H2471       H  0.68315936  0.86523296  0.24295927     0.19300
H2472       H  0.93728375  0.87682960  0.30626423     0.19300
C2473       C  0.99530695  0.57812872  0.25038606    -0.06600
C2474       C  0.01853445  0.61472085  0.26905782    -0.17700
C2475       C  0.00387079  0.63153825  0.28796949     0.10600
C2476       C  0.96519529  0.61235680  0.28781547    -0.06500
C2477       C  0.94288346  0.58242820  0.26759328    -0.17700
C2478       C  0.95708204  0.56427014  0.24898148     0.10700
S2479       S  0.70116734  0.67206025  0.31278200    -0.32700
S2480       S  0.92257297  0.51538056  0.22732188    -0.32700
H2481       H  0.93931981  0.48159452  0.22395416     0.28700
H2482       H  0.01125521  0.64516924  0.33098151     0.28700
H2483       H  0.71425360  0.62546491  0.27039987     0.19300
H2484       H  0.91330721  0.56929508  0.26721693     0.19300
C2485       C  0.95560512  0.84889368  0.08083545    -0.06600
C2486       C  0.92359263  0.83593405  0.09380614    -0.17700
C2487       C  0.91506238  0.80207407  0.11392806     0.10600
C2488       C  0.93901759  0.78105103  0.12111479    -0.06500
C2489       C  0.97174487  0.79616464  0.10873404    -0.17700
C2490       C  0.98035013  0.82982438  0.08876018     0.10700
S2491       S  0.87278122  0.78334533  0.12962531    -0.32700
S2492       S  0.02262839  0.84523418  0.07372242    -0.32700
H2493       H  0.67579210  0.84569613  0.05035302     0.28700
H2494       H  0.86223344  0.81799050  0.11701290     0.28700
H2495       H  0.90508555  0.85168275  0.08790261     0.19300
H2496       H  0.99005295  0.77982024  0.11406351     0.19300
C2497       C  0.77193445  0.57452802  0.08412927    -0.06600
C2498       C  0.80367972  0.57255164  0.07751867    -0.17700
C2499       C  0.83555926  0.59360107  0.09286056     0.10600
C2500       C  0.83575037  0.61668417  0.11655954    -0.06500
C2501       C  0.80303822  0.61839217  0.12253615    -0.17700
C2502       C  0.77111708  0.59611120  0.10719672     0.10700
S2503       S  0.87493834  0.59437927  0.07872362    -0.32700
S2504       S  0.73025032  0.59697488  0.11803136    -0.32700
H2505       H  0.70463812  0.54917680  0.10454230     0.28700
H2506       H  0.85479542  0.54563020  0.06413631     0.28700
H2507       H  0.80435531  0.55785419  0.05928987     0.19300
H2508       H  0.80237576  0.64028485  0.13849125     0.19300
C2509       C  0.98333874  0.59881212  0.08247810    -0.06600
C2510       C  0.94976808  0.55797413  0.09119158    -0.17700
C2511       C  0.93179979  0.57054045  0.10938419     0.10600
C2512       C  0.94891122  0.62535700  0.11987780    -0.06500
C2513       C  0.98391242  0.66465551  0.11254162    -0.17700
C2514       C  0.00112714  0.65254902  0.09376428     0.10700
S2515       S  0.88631989  0.51485661  0.11635457    -0.32700
S2516       S  0.71099165  0.70466977  0.08536255    -0.32700
H2517       H  0.72717776  0.67044714  0.08136555     0.28700
H2518       H  0.87451820  0.54733539  0.12941895     0.28700
H2519       H  0.93638452  0.51646325  0.08284727     0.19300
H2520       H  0.99761997  0.70569719  0.12120773     0.19300
C2521       C  0.95320828  0.62323522  0.17414786    -0.06600
C2522       C  0.94407718  0.56765656  0.16901618    -0.17700
C2523       C  0.96496081  0.54340282  0.17830181     0.10600
C2524       C  0.99432990  0.57377274  0.19544699    -0.06500
C2525       C  0.00355172  0.62961763  0.20095036    -0.17700
C2526       C  0.98405068  0.65468343  0.19016144     0.10700
S2527       S  0.95058411  0.47152958  0.17019823    -0.32700
S2528       S  0.00028035  0.72701940  0.19717415    -0.32700
H2529       H  0.99969213  0.73904707  0.17266562     0.28700
H2530       H  0.92090777  0.96135786  0.15463227     0.28700
H2531       H  0.91953100  0.54223627  0.15824276     0.19300
H2532       H  0.02581423  0.65386078  0.21414441     0.13900
C2533       C  0.83626696  0.61479262  0.17455101    -0.06600
C2534       C  0.81771953  0.64437485  0.18129577    -0.17700
C2535       C  0.78494725  0.61969018  0.19417731     0.10600
C2536       C  0.77019000  0.56397012  0.20086347    -0.06500
C2537       C  0.79047571  0.53581381  0.19610812    -0.17700
C2538       C  0.82336526  0.56067528  0.18309364     0.10700
S2539       S  0.76270557  0.66026477  0.20246772    -0.32700
S2540       S  0.84889470  0.52343466  0.17792678    -0.32700
H2541       H  0.82764552  0.47815807  0.19236381     0.28700
H2542       H  0.78914332  0.71077411  0.19314595     0.28700
H2543       H  0.82797688  0.68628075  0.17524708     0.19300
H2544       H  0.78049259  0.49430835  0.20256141     0.19300
C2545       C  0.94724571  0.78931783  0.17641454    -0.06600
C2546       C  0.98325404  0.82841424  0.16996244    -0.17700
C2547       C  0.00293474  0.88158667  0.18128960     0.10600
C2548       C  0.98668603  0.89740382  0.20003810    -0.06500
C2549       C  0.95049224  0.85855414  0.20641705    -0.17700
C2550       C  0.93117582  0.80475067  0.19539621     0.10700
S2551       S  0.04939309  0.92695068  0.17200457    -0.32700
S2552       S  0.88598929  0.75725603  0.20575813    -0.32700
H2553       H  0.88605742  0.78994890  0.22571064     0.28700
H2554       H  0.71869207  0.88877901  0.15511233     0.28700
H2555       H  0.99656690  0.81665698  0.15615451     0.19300
H2556       H  0.93713743  0.87058240  0.22015590     0.19300
C2557       C  0.89116545  0.93730365  0.95103608    -0.06600
C2558       C  0.88927179  0.90252036  0.93149475    -0.17700
C2559       C  0.86036281  0.88361720  0.91384656     0.10600
C2560       C  0.83285405  0.90090273  0.91547865    -0.06500
C2561       C  0.83699193  0.94001267  0.93369876    -0.17700
C2562       C  0.86555268  0.95805568  0.95154970     0.10700
S2563       S  0.85723163  0.83049856  0.89264279    -0.32700
S2564       S  0.86544823  0.50409632  0.97582880    -0.32700
H2565       H  0.87153170  0.47544850  0.99471825     0.28700
H2566       H  0.81836104  0.79820350  0.89251108     0.28700
H2567       H  0.90913849  0.88699566  0.93083445     0.19300
H2568       H  0.81637002  0.95395704  0.93491146     0.19300
C2569       C  0.72959486  0.73757732  0.92103941    -0.06600
C2570       C  0.69275489  0.69353099  0.91970868    -0.17700
C2571       C  0.67846156  0.65638811  0.93857885     0.10600
C2572       C  0.70152026  0.66331195  0.95925484    -0.06500
C2573       C  0.73837144  0.70504856  0.96000625    -0.17700
C2574       C  0.75284641  0.74101049  0.94118602     0.10700
S2575       S  0.96221019  0.60655565  0.93611114    -0.32700
S2576       S  0.80205097  0.78702604  0.94299180    -0.32700
H2577       H  0.80886774  0.78216723  0.96762847     0.28700
H2578       H  0.95622585  0.60692308  0.96100834     0.28700
H2579       H  0.67429346  0.68954502  0.90455697     0.19300
H2580       H  0.75654300  0.70791366  0.97518343     0.19300
C2581       C  0.68591461  0.91540020  0.96179707    -0.06600
C2582       C  0.66765479  0.86130554  0.95159481    -0.17700
C2583       C  0.68182993  0.84573001  0.93192320     0.10600
C2584       C  0.71548923  0.88517130  0.92190542    -0.06500
C2585       C  0.73399877  0.93925366  0.93217161    -0.17700
C2586       C  0.71976683  0.95459412  0.95199917     0.10700
S2587       S  0.98681603  0.77629587  0.91976753    -0.32700
S2588       S  0.74762646  0.02311183  0.96536976    -0.32700
H2589       H  0.74669330  0.00236104  0.98853924     0.28700
H2590       H  0.67088451  0.78003187  0.89842840     0.28700
H2591       H  0.97398660  0.83208855  0.95800657     0.19300
H2592       H  0.76050903  0.96908358  0.92532714     0.19300
C2593       C  0.67637166  0.94667206  0.84061204    -0.06600
C2594       C  0.71326237  0.96022183  0.83605398    -0.17700
C2595       C  0.73189481  0.93642443  0.84868468     0.10600
C2596       C  0.71345629  0.89604475  0.86609469    -0.06500
C2597       C  0.67644478  0.88250667  0.87069965    -0.17700
C2598       C  0.65789092  0.90734134  0.85835038     0.10700
S2599       S  0.78023142  0.96327881  0.84296796    -0.32700
S2600       S  0.94259129  0.88418224  0.86265073    -0.32700
H2601       H  0.93733656  0.84175422  0.87848664     0.28700
H2602       H  0.79033923  0.97157057  0.86779072     0.28700
H2603       H  0.72822651  0.99089186  0.82283744     0.19300
H2604       H  0.66152900  0.85132401  0.88355820     0.19300
C2605       C  0.71605577  0.72475520  0.86500754    -0.06600
C2606       C  0.72752248  0.68443879  0.86874560    -0.17700
C2607       C  0.70915506  0.63162099  0.85696470     0.10600
C2608       C  0.67781593  0.61720787  0.84130171    -0.06500
C2609       C  0.66636715  0.65747534  0.83765911    -0.17700
C2610       C  0.68500798  0.71068556  0.84908688     0.10700
S2611       S  0.72861786  0.58595361  0.86133417    -0.32700
S2612       S  0.00266224  0.76165739  0.84184425    -0.32700
H2613       H  0.64179915  0.72813581  0.82485828     0.28700
H2614       H  0.72770834  0.57441775  0.83638858     0.28700
H2615       H  0.75156512  0.69463214  0.88062055     0.19300
H2616       H  0.97682635  0.64937094  0.82446904     0.19300
C2617       C  0.89544090  0.95056057  0.83673990    -0.06600
C2618       C  0.86754084  0.89650218  0.82967539    -0.17700
C2619       C  0.83322095  0.87058439  0.84093390     0.10600
C2620       C  0.82650782  0.89820902  0.86053488    -0.06500
C2621       C  0.85398125  0.95311578  0.86686979    -0.17700
C2622       C  0.88772673  0.97941847  0.85517291     0.10700
S2623       S  0.80032038  0.80146478  0.83000382    -0.32700
S2624       S  0.91868651  0.05104838  0.86360337    -0.32700
H2625       H  0.92486824  0.56686143  0.83975640     0.28700
H2626       H  0.79335892  0.77960402  0.85307324     0.28700
H2627       H  0.87274410  0.87372904  0.81541483     0.19300
H2628       H  0.84901351  0.97622818  0.88108482     0.19300
C2629       C  0.89957915  0.95523821  0.78143317    -0.06600
C2630       C  0.87392392  0.97517191  0.78360663    -0.17700
C2631       C  0.84749386  0.96559601  0.76502023     0.10600
C2632       C  0.84630286  0.93490163  0.74390644    -0.06500
C2633       C  0.87009125  0.91191423  0.74236294    -0.17700
C2634       C  0.89650122  0.92136681  0.76091792     0.10700
S2635       S  0.81507008  0.49121390  0.76970552    -0.32700
S2636       S  0.92400565  0.88638809  0.75873908    -0.32700
H2637       H  0.91601442  0.87034984  0.73407168     0.28700
H2638       H  0.81689723  0.50941326  0.74597884     0.28700
H2639       H  0.87531832  0.49962161  0.79946020     0.19300
H2640       H  0.86733003  0.88548071  0.72676321     0.19300
C2641       C  0.70769498  0.69127122  0.75133075    -0.06600
C2642       C  0.67008028  0.67059022  0.75615807    -0.17700
C2643       C  0.65344557  0.63077161  0.77370833     0.10600
C2644       C  0.67504405  0.61197835  0.78682194    -0.06500
C2645       C  0.71325640  0.63572458  0.78316714    -0.17700
C2646       C  0.72977216  0.67492991  0.76545339     0.10700
S2647       S  0.60469337  0.60389549  0.77906044    -0.32700
S2648       S  0.77864278  0.70046066  0.76084848    -0.32700
H2649       H  0.78580427  0.75288591  0.75280957     0.28700
H2650       H  0.92957555  0.62885917  0.75860780     0.28700
H2651       H  0.65349280  0.68393497  0.74543150     0.19300
H2652       H  0.72994214  0.62167513  0.79338007     0.19300
C2653       C  0.70869252  0.92166746  0.74590973    -0.06600
C2654       C  0.68725774  0.88313572  0.76304297    -0.17700
C2655       C  0.67111248  0.89837586  0.78195762     0.10600
C2656       C  0.67803456  0.95411282  0.78437167    -0.06500
C2657       C  0.70057248  0.99249213  0.76776108    -0.17700
C2658       C  0.71438496  0.97678342  0.74818592     0.10700
S2659       S  0.63940145  0.84541301  0.80122157    -0.32700
S2660       S  0.73630882  0.02870036  0.72587079    -0.32700
H2661       H  0.71937599  0.99118337  0.70596740     0.28700
H2662       H  0.64334443  0.80097744  0.79125506     0.28700
H2663       H  0.68277818  0.84092598  0.76139710     0.19300
H2664       H  0.70522900  0.53438320  0.76889531     0.19300
C2665       C  0.81623750  0.77385603  0.45787846    -0.06600
C2666       C  0.79374891  0.73813400  0.43870561    -0.17700
C2667       C  0.80896114  0.72183890  0.41996301     0.10600
C2668       C  0.84758631  0.74060491  0.42058571    -0.06500
C2669       C  0.86942060  0.77085872  0.44097395    -0.17700
C2670       C  0.85450345  0.78804428  0.45961811     0.10700
S2671       S  0.77811761  0.68126868  0.39493407    -0.32700
S2672       S  0.88788133  0.83407280  0.48253463    -0.32700
H2673       H  0.87060328  0.86668651  0.48713871     0.28700
H2674       H  0.80283220  0.71074760  0.37688141     0.28700
H2675       H  0.76434332  0.72599793  0.43744644     0.19300
H2676       H  0.89899460  0.78399228  0.44171458     0.19300
C2677       C  0.70952610  0.78891447  0.45047806    -0.06600
C2678       C  0.71011843  0.82940140  0.43523330    -0.17700
C2679       C  0.68197333  0.81711335  0.41767761     0.10600
C2680       C  0.98675545  0.76227757  0.41412802    -0.06500
C2681       C  0.98647896  0.72102888  0.42908883    -0.17700
C2682       C  0.68057009  0.73366263  0.44727329     0.10700
S2683       S  0.68402596  0.87567158  0.40216060    -0.32700
S2684       S  0.67986851  0.67927015  0.46537755    -0.32700
H2685       H  0.64671989  0.63552747  0.45507701     0.28700
H2686       H  0.97986041  0.86131823  0.40723827     0.28700
H2687       H  0.73222647  0.87194505  0.43767719     0.19300
H2688       H  0.96467866  0.67843989  0.42623065     0.19300
C2689       C  0.81765685  0.93777764  0.45095615    -0.06600
C2690       C  0.80250172  0.97386651  0.44785582    -0.17700
C2691       C  0.81349513  0.01144121  0.42889631     0.10600
C2692       C  0.84084575  0.51255031  0.41248999    -0.06500
C2693       C  0.85676271  0.47836879  0.41655281    -0.17700
C2694       C  0.84511029  0.94125557  0.43509492     0.10700
S2695       S  0.79157652  0.05457871  0.42570953    -0.32700
S2696       S  0.87133632  0.40476394  0.44061697    -0.32700
H2697       H  0.88239824  0.90657690  0.41563105     0.28700
H2698       H  0.79372340  0.05792530  0.40043245     0.28700
H2699       H  0.78109540  0.97132988  0.45967392     0.19300
H2700       H  0.87871889  0.48150569  0.40510802     0.19300
C2701       C  0.86290955  0.72746093  0.59030203    -0.06600
C2702       C  0.82459628  0.70923909  0.58750970    -0.17700
C2703       C  0.80624766  0.72569266  0.60420284     0.10600
C2704       C  0.82650577  0.76023662  0.62445789    -0.06500
C2705       C  0.86486198  0.77983339  0.62690758    -0.17700
C2706       C  0.88324991  0.76354073  0.61021231     0.10700
S2707       S  0.75725766  0.70363268  0.59912349    -0.32700
S2708       S  0.93269571  0.78996147  0.61457404    -0.32700
H2709       H  0.93782868  0.82186963  0.63595173     0.28700
H2710       H  0.75288090  0.67669312  0.57642038     0.28700
H2711       H  0.80891560  0.68113663  0.57246339     0.19300
H2712       H  0.88015356  0.80658748  0.64241189     0.19300
C2713       C  0.68949905  0.74090048  0.62670131    -0.06600
C2714       C  0.69221277  0.78139504  0.61038170    -0.17700
C2715       C  0.00035459  0.76978581  0.59113935     0.10600
C2716       C  0.97024348  0.71514622  0.58820188    -0.06500
C2717       C  0.96834321  0.67473132  0.60412954    -0.17700
C2718       C  0.99455603  0.68724560  0.62306684     0.10700
S2719       S  0.67212723  0.82600286  0.57291347    -0.32700
S2720       S  0.98975657  0.63007487  0.64085551    -0.32700
H2721       H  0.98037539  0.65055825  0.66157372     0.28700
H2722       H  0.96821527  0.80632587  0.56752469     0.28700
H2723       H  0.71431627  0.82394194  0.61291544     0.19300
H2724       H  0.94562915  0.63268945  0.60201907     0.19300
C2725       C  0.85722796  0.56440028  0.58354090    -0.06600
C2726       C  0.82576730  0.55935618  0.59509937    -0.17700
C2727       C  0.80882218  0.52003474  0.61264556     0.10600
C2728       C  0.82416377  0.98598055  0.61951133    -0.06500
C2729       C  0.85431323  0.98867177  0.60711184    -0.17700
C2730       C  0.87104677  0.52723026  0.58924169     0.10700
S2731       S  0.76703334  0.51457496  0.62520426    -0.32700
S2732       S  0.91072756  0.52825432  0.57560312    -0.32700
H2733       H  0.90373842  0.54310144  0.55293001     0.28700
H2734       H  0.75064308  0.45716832  0.62907674     0.28700
H2735       H  0.81465808  0.58706313  0.59066793     0.19300
H2736       H  0.86628729  0.96252457  0.61235255     0.19300
C2737       C  0.85814449  0.73424217  0.53551137    -0.06600
C2738       C  0.82733760  0.70003189  0.52024995    -0.17700
C2739       C  0.80473508  0.71997008  0.50950968     0.10600
C2740       C  0.81337415  0.77642277  0.51340576    -0.06500
C2741       C  0.84226884  0.80928856  0.53026258    -0.17700
C2742       C  0.86539379  0.78962824  0.54052686     0.10700
S2743       S  0.76446998  0.67018853  0.49180578    -0.32700
S2744       S  0.90655614  0.83934550  0.55725016    -0.32700
H2745       H  0.92932022  0.82377226  0.54425635     0.28700
H2746       H  0.74548221  0.70113159  0.49260718     0.28700
H2747       H  0.82025353  0.65684822  0.51710767     0.19300
H2748       H  0.84955486  0.85257098  0.53333807     0.19300
C2749       C  0.85519282  0.56402562  0.52818739    -0.06600
C2750       C  0.81836171  0.52557617  0.53330191    -0.17700
C2751       C  0.80013465  0.97080181  0.52286733     0.10600
C2752       C  0.81893876  0.95414489  0.50625217    -0.06500
C2753       C  0.85522183  0.99365638  0.50035046    -0.17700
C2754       C  0.87329918  0.54837266  0.51067426     0.10700
S2755       S  0.75329646  0.92381750  0.53112892    -0.32700
S2756       S  0.91985871  0.59610408  0.50211637    -0.32700
H2757       H  0.92396579  0.56020411  0.48543227     0.28700
H2758       H  0.74943936  0.95962069  0.54800304     0.28700
H2759       H  0.80390161  0.53797035  0.54605784     0.19300
H2760       H  0.87003674  0.98133442  0.48783609     0.19300
C2761       C  0.97130892  0.72590434  0.53169737    -0.06600
C2762       C  0.97600853  0.76819521  0.51595757    -0.17700
C2763       C  0.67563954  0.79836624  0.50364621     0.10600
C2764       C  0.70525724  0.78562373  0.50671340    -0.06500
C2765       C  0.70056263  0.74336141  0.52235125    -0.17700
C2766       C  0.00065670  0.71239564  0.53427690     0.10700
S2767       S  0.67857804  0.85500183  0.48607189    -0.32700
S2768       S  0.99709270  0.65360678  0.55031780    -0.32700
H2769       H  0.95825919  0.62531933  0.54991820     0.28700
H2770       H  0.71728380  0.88272457  0.48368789     0.28700
H2771       H  0.95410274  0.77947390  0.51389264     0.19300
H2772       H  0.72269440  0.73267797  0.52471335     0.19300
loop_ 
_geom_bond_atom_site_label_1 
_geom_bond_atom_site_label_2 
_geom_bond_distance 
_geom_bond_site_symmetry_2 
_ccdc_geom_bond_type 
C1            H2   1.110       .  S
C1            C7   1.562       .  S
C1            C6   1.565       .  S
C1            C5   1.562       .  S
C3            H4   1.112       .  S
C3            C9   1.525       .  S
C3            C8   1.528       .  S
C3           C10   1.527       .  S
C5            C8   1.380       .  D
C5          C451   1.504       .  S
C6            C9   1.375       .  D
C6          C427   1.505       .  S
C7           C10   1.375       .  D
C7          C439   1.509       .  S
C8          C406   1.486       .  S
C9          C391   1.492       .  S
C10         C415   1.484       .  S
C11          H12   1.112       .  S
C11          C17   1.532       .  S
C11          C16   1.524       .  S
C11          C15   1.534       .  S
C13          H14   1.110       .  S
C13          C19   1.571       .  S
C13          C18   1.559       .  S
C13          C20   1.558       .  S
C15          C18   1.372       .  D
C15         C355   1.487       .  S
C16          C19   1.380       .  D
C16         C379   1.498       .  S
C17          C20   1.378       .  D
C17         C367   1.488       .  S
C18         C430   1.507       .  S
C19         C442   1.509       .  S
C20         C454   1.500       .  S
O21         Ni27   1.927       .  S
O21          C42   1.271       .  A
O22         Ni45   1.906       .  S
O22          C31   1.266       .  A
O23         Ni27   1.921       .  S
O23         Ni45   1.910       .  S
O23         Ni39   1.931       .  S
O23          H46   0.966       .  S
C24          O41   1.271       .  A
C24          O33   1.269       .  A
C24         C343   1.485       .  S
O25         Ni44   1.923       .  S
O25          C31   1.271       .  A
O26         Ni44   1.908       .  S
O26          C28   1.271       .  A
Ni27         O30   1.933       .  S
Ni27         O32   1.909       .  S
C28          O38   1.271       .  A
C28         C322   1.460       .  S
O29         Ni45   1.909       .  S
O29          C35   1.268       .  A
O30          C35   1.270       .  A
C31         C418   1.476       .  S
O32          C34   1.273       .  A
O33         Ni44   1.923       .  S
C34          O40   1.275       .  A
C34         C403   1.487       .  S
C35         C394   1.475       .  S
H36          O37   0.966       .  S
O37         Ni45   1.917       .  S
O37         Ni39   1.906       .  S
O37         Ni44   1.916       .  S
O38         Ni39   1.930       .  S
Ni39         O43   1.899       .  S
Ni39         O41   1.917       .  S
O40         Ni45   1.932       .  S
C42          O43   1.264       .  A
C42         C331   1.468       .  S
C47          H48   1.110       .  S
C47          C52   1.563       .  S
C47         C515   1.563   1_545  S
C47         C513   1.566   1_545  S
C49          H50   1.112       .  S
C49          C55   1.526       .  S
C49         C516   1.522   1_545  S
C49        C1442   1.535   1_545  S
C51         C509   1.566       .  S
C51          C54   1.376       .  D
C51         C307   1.501       .  S
C52          C55   1.369       .  D
C52        C1222   1.507       .  S
C53         C509   1.561       .  S
C53         C980   1.379       .  D
C53        C1207   1.505       .  S
C54         C511   1.522       .  S
C54         C319   1.491       .  S
C55        C1258   1.483       .  S
C56        C2359   1.536       .  S
C56        C1901   1.380       .  D
C56         C346   1.493   1_655  S
C57          H58   1.109       .  S
C57          C63   1.562       .  S
C57          C62   1.557       .  S
C57          C61   1.572       .  S
C59          H60   1.111       .  S
C59          C65   1.534       .  S
C59          C64   1.528       .  S
C59          C66   1.531       .  S
C61          C64   1.384       .  D
C61         C295   1.510       .  S
C62          C65   1.373       .  D
C62         C310   1.506       .  S
C63          C66   1.376       .  D
C63         C286   1.514       .  S
C64         C259   1.500       .  S
C65         C250   1.492       .  S
C66         C274   1.487       .  S
C67          H68   1.098       .  S
C67          C73   1.522       .  S
C67          C72   1.528       .  S
C67          C71   1.527       .  S
C69          H70   1.110       .  S
C69          C75   1.560       .  S
C69          C74   1.573       .  S
C69          C76   1.562       .  S
C71          C74   1.402       .  D
C71         C190   1.532       .  S
C72          C75   1.368       .  D
C72         C202   1.472       .  S
C73          C76   1.371       .  D
C73         C178   1.481       .  S
C74         C223   1.498       .  S
C75         C211   1.513       .  S
C76         C235   1.517       .  S
C77          H78   1.109       .  S
C77          C82   1.555       .  S
C77          C81   1.555       .  S
C77         C545   1.573   1_545  S
C79         H542   1.112       .  S
C79          C85   1.539       .  S
C79          C84   1.531       .  S
C79         C548   1.532   1_545  S
H80         C541   1.112       .  S
C81          C84   1.367       .  D
C81         C226   1.494       .  S
C82          C85   1.372       .  D
C82        C2062   1.508   1_455  S
C83         C539   1.574       .  S
C83          C86   1.385       .  D
C83        C2086   1.513   1_455  S
C84         C142   1.488       .  S
C85        C2011   1.485   1_455  S
C86         C541   1.531       .  S
C86        C1999   1.502   1_455  S
O87         Ni93   1.940       .  S
O87         C108   1.276       .  A
O88        Ni111   1.889       .  S
O88          C97   1.259       .  A
O89         Ni93   1.917       .  S
O89        Ni111   1.903       .  S
O89        Ni105   1.902       .  S
O89         H112   0.966       .  S
C90         O107   1.260       .  A
C90          O99   1.273       .  A
C90         C358   1.466       .  S
O91        Ni110   1.928       .  S
O91          C97   1.274       .  A
O92        Ni110   1.902       .  S
O92          C94   1.269       .  A
Ni93         O96   1.939       .  S
Ni93         O98   1.911       .  S
C94         O104   1.280       .  A
C94         C370   1.494       .  S
O95        Ni111   1.884       .  S
O95         C101   1.260       .  A
O96         C101   1.276       .  A
C97         C154   1.478       .  S
O98         C100   1.272       .  A
O99        Ni110   1.940       .  S
C100        O106   1.274       .  A
C100        C139   1.489       .  S
C101        C166   1.463       .  S
H102        O103   0.966       .  S
O103       Ni111   1.914       .  S
O103       Ni105   1.907       .  S
O103       Ni110   1.914       .  S
O104       Ni105   1.960       .  S
Ni105       O109   1.890       .  S
Ni105       O107   1.887       .  S
O106       Ni111   1.948       .  S
C108        O109   1.262       .  A
C108        C382   1.474       .  S
O113       Ni119   1.932       .  S
O113        C134   1.273   1_554  A
O114      Ni1061   1.890       .  S
O114        C123   1.262       .  A
O115       Ni119   1.914       .  S
O115       Ni599   1.898   1_545  S
O115      Ni1979   1.902   1_454  S
O115        H138   0.965       .  S
C116        O133   1.263       .  A
C116        O125   1.273       .  A
C116        C247   1.479       .  S
O117       Ni136   1.936       .  S
O117        C123   1.274       .  A
O118       Ni136   1.918   1_556  S
O118       C1044   1.276       .  A
Ni119       O122   1.934       .  S
Ni119       O124   1.893       .  S
C120        O130   1.275       .  A
C120       O1966   1.277       .  A
C120        C271   1.487   1_655  S
O121       Ni599   1.904   1_545  S
O121        C127   1.269       .  A
O122        C127   1.274       .  A
C123        C175   1.467       .  S
O124       C1974   1.266   1_455  A
O125       Ni136   1.943   1_556  S
C126        O132   1.271       .  A
C126       O1048   1.265       .  A
C126        C199   1.465       .  S
C127        C187   1.467       .  S
H128        O129   0.966       .  S
O129       Ni136   1.924       .  S
O129      Ni1061   1.926       .  S
O129       Ni593   1.902   1_554  S
O130      Ni2441   1.942       .  S
Ni131      O1516   1.942   1_545  S
Ni131      O1059   1.879       .  S
Ni131       O595   1.899   1_545  S
Ni131      O1039   1.905   1_556  S
Ni131       O591   1.902   1_546  S
O132      Ni1523   1.924   1_545  S
O133       Ni593   1.899       .  S
C134        O135   1.257       .  A
C134        C262   1.465       .  S
O135      Ni1979   1.880   1_455  S
Ni137      O1962   1.893   1_455  S
Ni137       O583   1.902       .  S
Ni137      O2442   1.926   1_455  S
Ni137       O577   1.900       .  S
Ni137      O1977   1.924   1_455  S
C139        C140   1.404       .  A
C139        C144   1.417       .  A
C140        C141   1.402       .  A
C140        H149   1.083       .  S
C141        C142   1.410       .  A
C141        S607   1.803   1_545  S
C142        C143   1.402       .  A
C143        C144   1.406       .  A
C143        H150   1.083       .  S
C144        S146   1.797       .  S
S145        C603   1.803       .  S
S145        H148   1.407       .  S
S146        H147   1.407       .  S
C151       C1010   1.503       .  S
C151        C152   1.407       .  A
C151        C156   1.415       .  A
C152        C153   1.409       .  A
C152       H1085   1.082       .  S
C153        C154   1.417       .  A
C153       S1081   1.802       .  S
C154        C155   1.390       .  A
C155        C156   1.388       .  A
C155        H162   1.084       .  S
C156        S158   1.784       .  S
S157       C2001   1.802   1_455  S
S157       H2008   1.407       .  S
S158        H159   1.407       .  S
H160       S1081   1.407       .  S
H161       C2000   1.082   1_455  S
C163       C1009   1.486       .  S
C163        C164   1.405       .  A
C163        C168   1.424       .  A
C164        C165   1.396       .  A
C164       H1097   1.084       .  S
C165        C166   1.409       .  A
C165       S1093   1.803       .  S
C166        C167   1.397       .  A
C167        C168   1.392       .  A
C167        H174   1.085       .  S
C168        S170   1.806       .  S
S169       C2013   1.803       .  S
S169       H2020   1.406       .  S
S170        H171   1.403   1_545  S
H172       S1093   1.406       .  S
H173       C2012   1.084       .  S
C175        C176   1.404       .  A
C175        C180   1.409       .  A
C176        C177   1.405       .  A
C176        H185   1.083       .  S
C177        C178   1.407       .  A
C177        S181   1.806       .  S
C178        C179   1.402       .  A
C179        C180   1.396       .  A
C179        H186   1.079       .  S
C180        S182   1.805       .  S
S181        H184   1.407       .  S
S182       H1107   1.406       .  S
H183       S2030   1.405       .  S
C187        C188   1.385       .  A
C187        C192   1.403       .  A
C188        C189   1.400       .  A
C188        H197   1.085       .  S
C189        C190   1.444       .  A
C189        S193   1.802       .  S
C190        C191   1.410       .  A
C191        C192   1.399       .  A
C191        H198   1.065       .  S
C192        S194   1.803       .  S
S193        H196   1.408       .  S
S194        H195   1.406       .  S
C199        C200   1.400       .  A
C199        C204   1.414       .  A
C200        C201   1.393       .  A
C200        H209   1.084       .  S
C201        C202   1.421       .  A
C201        S205   1.813       .  S
C202        C203   1.396       .  A
C203        C204   1.390       .  A
C203        H210   1.082       .  S
C204       S1130   1.804       .  S
S205        H208   1.397       .  S
S206       C2052   1.804       .  S
S206        H207   1.402       .  S
C211        C212   1.404       .  A
C211        C216   1.411       .  A
C212        C213   1.404       .  A
C212        H221   1.065       .  S
C213        C214   1.411       .  A
C213        S217   1.807   1_545  S
C214       C1006   1.509       .  S
C214        C215   1.413       .  A
C215        C216   1.408       .  A
C215        H222   1.082       .  S
C216        S218   1.793       .  S
S217        H682   1.406       .  S
S218        H219   1.405       .  S
H220        S679   1.406       .  S
C223        C224   1.403       .  A
C223        C228   1.411       .  A
C224        C225   1.403       .  A
C224        H233   1.081       .  S
C225        C226   1.409       .  A
C225        S229   1.803       .  S
C226        C227   1.403       .  A
C227        C228   1.409       .  A
C227        H234   1.080   1_545  S
C228        S230   1.800       .  S
S229        H232   1.407       .  S
S230        H231   1.407   1_545  S
C235        C236   1.408       .  A
C235        C240   1.414       .  A
C236        C237   1.407       .  A
C236        H245   1.079       .  S
C237        C238   1.415       .  A
C237        S241   1.801       .  S
C238       C1007   1.514       .  S
C238        C239   1.409       .  A
C239        C240   1.411       .  A
C239        H246   1.081       .  S
C240        S242   1.796       .  S
S241       H1168   1.406       .  S
S242        H243   1.407       .  S
H244       S2089   1.407       .  S
C247        C248   1.403       .  A
C247        C252   1.413       .  A
C248        C249   1.399       .  A
C248        H257   1.084       .  S
C249        C250   1.420       .  A
C249        S253   1.804       .  S
C250        C251   1.403       .  A
C251        C252   1.399       .  A
C251        H258   1.084       .  S
C252        S716   1.802       .  S
S253        H256   1.402       .  S
S254        C714   1.802   1_545  S
S254        H255   1.407   1_545  S
C259        C260   1.408       .  A
C259        C264   1.419       .  A
C260        C261   1.404       .  A
C260        H269   1.082       .  S
C261        C262   1.413       .  A
C261       S2113   1.802   1_455  S
C262        C263   1.388       .  A
C263        C264   1.385       .  A
C263        H270   1.084       .  S
C264        S266   1.790       .  S
S265       C1185   1.803       .  S
S265        H268   1.407       .  S
S266        H267   1.407       .  S
C271        C272   1.400       .  A
C271        C276   1.417       .  A
C272        C273   1.399       .  A
C272       H2129   1.084   1_455  S
C273        C274   1.419       .  A
C273       S2125   1.803   1_455  S
C274        C275   1.400       .  A
C275        C276   1.404       .  A
C275        H282   1.084       .  S
C276        S278   1.795       .  S
S277       C1197   1.802       .  S
S277       H1204   1.399       .  S
S278        H279   1.407       .  S
H280       S2125   1.399   1_455  S
H281       C1196   1.084       .  S
C283       C1901   1.508   1_455  S
C283        C284   1.404       .  A
C283        C288   1.414   1_455  A
C284        C285   1.402       .  A
C284        H293   1.083       .  S
C285        C286   1.416       .  A
C285        S289   1.791       .  S
C286        C287   1.408       .  A
C287        C288   1.412   1_455  A
C287        H294   1.076   1_455  S
C288       S2138   1.802       .  S
S289        H292   1.406       .  S
S290       C1212   1.803       .  S
S290        H291   1.407       .  S
C295        C296   1.410       .  A
C295        C300   1.414       .  A
C296        C297   1.408       .  A
C296        H305   1.083       .  S
C297        C298   1.413       .  A
C297        S301   1.793       .  S
C298       C1900   1.510   1_455  S
C298        C299   1.406       .  A
C299        C300   1.407       .  A
C299       H2154   1.080   1_455  S
C300       S2150   1.802       .  S
S301        H304   1.405       .  S
S302       C1224   1.804       .  S
S302       H1227   1.407       .  S
H303       S2150   1.407   1_655  S
H306       C1223   1.080       .  S
C307        C308   1.409       .  A
C307        C312   1.410       .  A
C308        C309   1.404       .  A
C308        H317   1.083       .  S
C309        C310   1.416       .  A
C309        S313   1.799       .  S
C310        C311   1.410       .  A
C311        C312   1.398       .  A
C311        H318   1.083       .  S
C312        S314   1.796       .  S
S313        H316   1.399       .  S
S314        H777   1.405       .  S
H315        S776   1.405       .  S
C319        C320   1.404       .  A
C319        C324   1.415       .  A
C320        C321   1.398       .  A
C320        H791   1.083       .  S
C321        C322   1.410       .  A
C321        S787   1.801       .  S
C322        C323   1.393       .  A
C323        C324   1.398       .  A
C323        H330   1.083       .  S
C324        S326   1.799       .  S
S325        C783   1.801       .  S
S325        H328   1.405   1_565  S
S326        H327   1.407       .  S
H329        C782   1.083       .  S
C331        C332   1.399       .  A
C331        C336   1.412       .  A
C332        C333   1.402   1_455  A
C332        H341   1.083   1_455  S
C333        C334   1.411   1_655  A
C333        S337   1.802       .  S
C334       C1903   1.482   1_455  S
C334        C335   1.400       .  A
C335        C336   1.398       .  A
C335        H342   1.084       .  S
C336        S338   1.803       .  S
S337       H2188   1.406       .  S
S338        H339   1.406       .  S
H340       S1261   1.406       .  S
C343        C344   1.408       .  A
C343        C348   1.416       .  A
C344        C345   1.411       .  A
C344        H353   1.082       .  S
C345        C346   1.416       .  A
C345        S349   1.806   1_455  S
C346        C347   1.400       .  A
C347        C348   1.388       .  A
C347        H816   1.080       .  S
C348        S350   1.806       .  S
S349        H352   1.406       .  S
S350        H351   1.408       .  S
H354        C809   1.080   1_545  S
C355        C356   1.405       .  A
C355        C360   1.422       .  A
C356        C357   1.394       .  A
C356        H365   1.085       .  S
C357        C358   1.409       .  A
C357        S361   1.803       .  S
C358        C359   1.399       .  A
C359        C360   1.395       .  A
C359        H366   1.085       .  S
C360        S362   1.806       .  S
S361        H364   1.407       .  S
S362        H363   1.403       .  S
C367        C368   1.399       .  A
C367        C372   1.410       .  A
C368        C369   1.394       .  A
C368        H377   1.083       .  S
C369       C2218   1.420   1_455  A
C369        S373   1.803       .  S
C370        C371   1.410       .  A
C370       C1293   1.420       .  A
C371       C1296   1.409       .  A
C371        H378   1.082       .  S
C372       C2219   1.409   1_455  A
C372        S374   1.802       .  S
S373       H2224   1.408   1_455  S
S374        H375   1.406   1_455  S
H376       S1297   1.408       .  S
C379        C380   1.407       .  A
C379        C384   1.414       .  A
C380        C381   1.410       .  A
C380        H389   1.084       .  S
C381        C844   1.416       .  A
C381        S385   1.803       .  S
C382        C383   1.391   1_545  A
C382        C843   1.416       .  A
C383        C846   1.390       .  A
C383        H390   1.084       .  S
C384        C845   1.391       .  A
C384        S848   1.789       .  S
S385        H388   1.406       .  S
S386        C846   1.787       .  S
S386        H849   1.407       .  S
H387        S848   1.406       .  S
C391        C392   1.403       .  A
C391        C396   1.415       .  A
C392        C393   1.402       .  A
C392        H401   1.082       .  S
C393        C394   1.413       .  A
C393        S397   1.809       .  S
C394        C395   1.398       .  A
C395        C396   1.402       .  A
C395        H402   1.083       .  S
C396        S398   1.802       .  S
S397        H400   1.407       .  S
S398        H399   1.406       .  S
C403        C404   1.410       .  A
C403       C2256   1.414   1_455  A
C404       C2253   1.399   1_455  A
C404        H413   1.084       .  S
C405        C406   1.413       .  A
C405       C1328   1.398       .  A
C405       S1333   1.802       .  S
C406        C407   1.405       .  A
C407        C408   1.394       .  A
C407        H414   1.083       .  S
C408       C1327   1.414       .  A
C408        S410   1.800       .  S
S409       C2253   1.802   1_455  S
S409       H2260   1.397   1_455  S
S410        H411   1.407       .  S
H412       S1333   1.396       .  S
C415        C416   1.399       .  A
C415        C420   1.413       .  A
C416        C417   1.392       .  A
C416        H425   1.084       .  S
C417        C880   1.413   1_545  A
C417        S421   1.805       .  S
C418        C419   1.404       .  A
C418        C879   1.413       .  A
C419        C882   1.408       .  A
C419        H426   1.083       .  S
C420        C881   1.408   1_545  A
C420        S422   1.802       .  S
S421        H424   1.408   1_545  S
S422        H423   1.407   1_545  S
C427        C428   1.400       .  A
C427        C432   1.420       .  A
C428        C429   1.405       .  A
C428        H437   1.084       .  S
C429        C430   1.422       .  A
C429        S433   1.802       .  S
C430        C431   1.403       .  A
C431        C432   1.408       .  A
C431        H438   1.084       .  S
C432        S434   1.796       .  S
S433        H436   1.399       .  S
S434        H435   1.404       .  S
C439        C440   1.408       .  A
C439        C444   1.414       .  A
C440        C903   1.409   1_545  A
C440        H449   1.082       .  S
C441        C442   1.416       .  A
C441        C902   1.409       .  A
C441        S445   1.803       .  S
C442        C443   1.408       .  A
C443        C906   1.408       .  A
C443        H450   1.082       .  S
C444        C905   1.408   1_545  A
C444        S446   1.803       .  S
S445        H448   1.406       .  S
S446        H447   1.407       .  S
C451        C452   1.405       .  A
C451        C456   1.420       .  A
C452       C1377   1.408       .  A
C452        H461   1.084       .  S
C453        C454   1.420       .  A
C453       C2300   1.408   1_455  A
C453        S457   1.805       .  S
C454        C455   1.401       .  A
C455       C2304   1.401       .  A
C455        H462   1.083       .  S
C456       C1379   1.401       .  A
C456        S458   1.803       .  S
S457        H460   1.403       .  S
S458        H459   1.398       .  S
C463        H464   1.110       .  S
C463        C469   1.561       .  S
C463        C468   1.564       .  S
C463        C467   1.561       .  S
C465        H466   1.112       .  S
C465        C471   1.524       .  S
C465        C470   1.527       .  S
C465        C472   1.527       .  S
C467        C470   1.379       .  D
C467        C913   1.503       .  S
C468        C471   1.375       .  D
C468        C889   1.503       .  S
C469        C472   1.375       .  D
C469        C901   1.507       .  S
C470        C868   1.484       .  S
C471        C853   1.491       .  S
C472        C877   1.483       .  S
C473        H474   1.112       .  S
C473        C479   1.531       .  S
C473        C478   1.525       .  S
C473        C477   1.532       .  S
C475        H476   1.110       .  S
C475        C481   1.571       .  S
C475        C480   1.558       .  S
C475        C482   1.557       .  S
C477        C480   1.372       .  D
C477        C817   1.485       .  S
C478        C481   1.380       .  D
C478        C841   1.499       .  S
C479        C482   1.378       .  D
C479        C829   1.487       .  S
C480        C892   1.505       .  S
C481        C904   1.510       .  S
C482        C916   1.499       .  S
O483       Ni489   1.926       .  S
O483        C504   1.271       .  A
O484       Ni507   1.906       .  S
O484        C493   1.266       .  A
O485       Ni489   1.922       .  S
O485       Ni507   1.910       .  S
O485       Ni501   1.931       .  S
O485        H508   0.966       .  S
C486        O503   1.271       .  A
C486        O495   1.269       .  A
C486        C805   1.486       .  S
O487       Ni506   1.922       .  S
O487        C493   1.271       .  A
O488       Ni506   1.906       .  S
O488        C490   1.271       .  A
Ni489       O492   1.931       .  S
Ni489       O494   1.908       .  S
C490        O500   1.271       .  A
C490        C784   1.459       .  S
O491       Ni507   1.908       .  S
O491        C497   1.267       .  A
O492        C497   1.270       .  A
C493        C880   1.475       .  S
O494        C496   1.273       .  A
O495       Ni506   1.924       .  S
C496        O502   1.275       .  A
C496        C865   1.487       .  S
C497        C856   1.474       .  S
H498        O499   0.966       .  S
O499       Ni507   1.917       .  S
O499       Ni501   1.906       .  S
O499       Ni506   1.916       .  S
O500       Ni501   1.931       .  S
Ni501       O505   1.899       .  S
Ni501       O503   1.917       .  S
O502       Ni507   1.934       .  S
C504        O505   1.265       .  A
C504        C793   1.467       .  S
C509        H510   1.110       .  S
C509        C514   1.563       .  S
C511        H512   1.112       .  S
C511        C517   1.527       .  S
C511        C980   1.535       .  S
C513        C516   1.376       .  D
C513        C769   1.503       .  S
C514        C517   1.369       .  D
C514       C1684   1.509       .  S
C515       C1442   1.380       .  D
C515       C1669   1.506       .  S
C516        C781   1.489       .  S
C517       C1720   1.483       .  S
C518       C1897   1.535   1_565  S
C518       C2363   1.380       .  D
C518        C808   1.494   1_655  S
C519        H520   1.109       .  S
C519        C525   1.561       .  S
C519        C524   1.558       .  S
C519        C523   1.572       .  S
C521        H522   1.111       .  S
C521        C527   1.535       .  S
C521        C526   1.527       .  S
C521        C528   1.531       .  S
C523        C526   1.383       .  D
C523        C757   1.509       .  S
C524        C527   1.374       .  D
C524        C772   1.508       .  S
C525        C528   1.377       .  D
C525        C748   1.514       .  S
C526        C721   1.500       .  S
C527        C712   1.493       .  S
C528        C736   1.486       .  S
C529        H530   1.099       .  S
C529        C535   1.521       .  S
C529        C534   1.528       .  S
C529        C533   1.525       .  S
C531        H532   1.110       .  S
C531        C537   1.561       .  S
C531        C536   1.572       .  S
C531        C538   1.563       .  S
C533        C536   1.402       .  D
C533        C652   1.528       .  S
C534        C537   1.369       .  D
C534        C664   1.472       .  S
C535        C538   1.371       .  D
C535        C640   1.483       .  S
C536        C685   1.499       .  S
C537        C673   1.514       .  S
C538        C697   1.515       .  S
C539        H540   1.109       .  S
C539        C544   1.556       .  S
C539        C543   1.555       .  S
C541        C547   1.539       .  S
C541        C546   1.530       .  S
C543        C546   1.367       .  D
C543        C688   1.493       .  S
C544        C547   1.371       .  D
C544       C2524   1.509   1_455  S
C545        C548   1.385       .  D
C545       C2548   1.514   1_455  S
C546        C604   1.488       .  S
C547       C2473   1.483   1_455  S
C548       C2461   1.502   1_455  S
O549       Ni555   1.939       .  S
O549        C570   1.276       .  A
O550       Ni573   1.888       .  S
O550        C559   1.259       .  A
O551       Ni555   1.918       .  S
O551       Ni573   1.903       .  S
O551       Ni567   1.903       .  S
O551        H574   0.966       .  S
C552        O569   1.261       .  A
C552        O561   1.273       .  A
C552        C820   1.465       .  S
O553       Ni572   1.928       .  S
O553        C559   1.273       .  A
O554       Ni572   1.902       .  S
O554        C556   1.269       .  A
Ni555       O558   1.938       .  S
Ni555       O560   1.911       .  S
C556        O566   1.280       .  A
C556        C832   1.494       .  S
O557       Ni573   1.884       .  S
O557        C563   1.260       .  A
O558        C563   1.275       .  A
C559        C616   1.476       .  S
O560        C562   1.272       .  A
O561       Ni572   1.937       .  S
C562        O568   1.274       .  A
C562        C601   1.490       .  S
C563        C628   1.462       .  S
H564        O565   0.966       .  S
O565       Ni573   1.912       .  S
O565       Ni567   1.907       .  S
O565       Ni572   1.915       .  S
O566       Ni567   1.959       .  S
Ni567       O571   1.890       .  S
Ni567       O569   1.887       .  S
O568       Ni573   1.948       .  S
C570        O571   1.262       .  A
C570        C844   1.474       .  S
O575       Ni581   1.931       .  S
O575        C596   1.274   1_554  A
O576      Ni1523   1.891       .  S
O576        C585   1.263       .  A
O577       Ni581   1.915       .  S
O577      Ni2441   1.906   1_454  S
O577        H600   0.964       .  S
C578        O595   1.262       .  A
C578        O587   1.273       .  A
C578        C709   1.477       .  S
O579       Ni598   1.936       .  S
O579        C585   1.274       .  A
O580       Ni598   1.919   1_556  S
O580       C1506   1.277       .  A
Ni581       O584   1.935       .  S
Ni581       O586   1.892       .  S
C582       O2428   1.277       .  A
C582        O592   1.275       .  A
C582        C733   1.485   1_655  S
O583        C589   1.268       .  A
O584        C589   1.273       .  A
C585        C637   1.469       .  S
O586       C2436   1.265   1_455  A
O587       Ni598   1.943   1_556  S
C588       O1510   1.265       .  A
C588        O594   1.271       .  A
C588        C661   1.466       .  S
C589        C649   1.466       .  S
H590        O591   0.966       .  S
O591      Ni1523   1.924       .  S
O591       Ni598   1.923       .  S
O592      Ni1979   1.940   1_565  S
Ni593      O1054   1.941       .  S
Ni593      O1521   1.878       .  S
Ni593      O1501   1.905   1_556  S
O594      Ni1061   1.926       .  S
C596        O597   1.257       .  A
C596        C724   1.465       .  S
O597      Ni2441   1.880   1_455  S
Ni599      O2424   1.890   1_455  S
Ni599      O1980   1.925   1_465  S
Ni599      O2439   1.925   1_455  S
C601        C602   1.404       .  A
C601        C606   1.418       .  A
C602        C603   1.403       .  A
C602        H611   1.083       .  S
C603        C604   1.409       .  A
C604        C605   1.401       .  A
C605        C606   1.406       .  A
C605        H612   1.083       .  S
C606        S608   1.797       .  S
S607        H610   1.406       .  S
S608        H609   1.408       .  S
C613       C1472   1.503       .  S
C613        C614   1.407       .  A
C613        C618   1.415       .  A
C614        C615   1.409       .  A
C614       H1547   1.082       .  S
C615        C616   1.417       .  A
C615       S1543   1.802       .  S
C616        C617   1.390       .  A
C617        C618   1.387       .  A
C617        H624   1.084       .  S
C618        S620   1.784       .  S
S619       C2463   1.802   1_455  S
S619       H2470   1.407       .  S
S620        H621   1.407       .  S
H622       S1543   1.407       .  S
H623       C2462   1.082   1_455  S
C625       C1471   1.485       .  S
C625        C626   1.404       .  A
C625        C630   1.424       .  A
C626        C627   1.395       .  A
C626       H1559   1.084       .  S
C627        C628   1.409       .  A
C627       S1555   1.802       .  S
C628        C629   1.397       .  A
C629        C630   1.392       .  A
C629        H636   1.085       .  S
C630        S632   1.806       .  S
S631       C2475   1.803       .  S
S631       H2482   1.406       .  S
S632        H633   1.403       .  S
H634       S1555   1.406       .  S
H635       C2474   1.084       .  S
C637        C638   1.404       .  A
C637        C642   1.409       .  A
C638        C639   1.405       .  A
C638        H647   1.083       .  S
C639        C640   1.408       .  A
C639        S643   1.806       .  S
C640        C641   1.402       .  A
C641        C642   1.396       .  A
C641        H648   1.080       .  S
C642        S644   1.804       .  S
S643        H646   1.407       .  S
S644       H1569   1.405       .  S
H645       S2492   1.405       .  S
C649        C650   1.384       .  A
C649        C654   1.404       .  A
C650        C651   1.399       .  A
C650        H659   1.084       .  S
C651        C652   1.443       .  A
C651        S655   1.802       .  S
C652        C653   1.409       .  A
C653        C654   1.398       .  A
C653        H660   1.065       .  S
C654        S656   1.802       .  S
S655        H658   1.408       .  S
S656        H657   1.406       .  S
C661        C662   1.400       .  A
C661        C666   1.414       .  A
C662        C663   1.394       .  A
C662        H671   1.084       .  S
C663        C664   1.421       .  A
C663        S667   1.813       .  S
C664        C665   1.395       .  A
C665        C666   1.390       .  A
C665        H672   1.082       .  S
C666       S1592   1.804       .  S
S667        H670   1.397       .  S
S668       C2514   1.804       .  S
S668        H669   1.400       .  S
C673        C674   1.404       .  A
C673        C678   1.411       .  A
C674        C675   1.404       .  A
C674        H683   1.064       .  S
C675        C676   1.410       .  A
C675        S679   1.807       .  S
C676       C1468   1.509       .  S
C676        C677   1.413       .  A
C677        C678   1.408       .  A
C677        H684   1.082       .  S
C678        S680   1.793       .  S
S680        H681   1.405       .  S
C685        C686   1.402       .  A
C685        C690   1.412       .  A
C686        C687   1.402       .  A
C686        H695   1.081       .  S
C687        C688   1.409       .  A
C687        S691   1.802       .  S
C688        C689   1.403       .  A
C689        C690   1.409       .  A
C689        H696   1.080       .  S
C690        S692   1.800       .  S
S691        H694   1.406       .  S
S692        H693   1.407       .  S
C697        C698   1.407       .  A
C697        C702   1.414       .  A
C698        C699   1.405       .  A
C698        H707   1.079       .  S
C699        C700   1.414       .  A
C699        S703   1.800       .  S
C700       C1469   1.512       .  S
C700        C701   1.409       .  A
C701        C702   1.411       .  A
C701        H708   1.082       .  S
C702        S704   1.796       .  S
S703       H1630   1.407       .  S
S704        H705   1.407       .  S
H706       S2551   1.407       .  S
C709        C710   1.402       .  A
C709        C714   1.413       .  A
C710        C711   1.398       .  A
C710        H719   1.084       .  S
C711        C712   1.421       .  A
C711        S715   1.805       .  S
C712        C713   1.403       .  A
C713        C714   1.399       .  A
C713        H720   1.084       .  S
S715        H718   1.402       .  S
S716        H717   1.407       .  S
C721        C722   1.409       .  A
C721        C726   1.418       .  A
C722        C723   1.405       .  A
C722        H731   1.082       .  S
C723        C724   1.413       .  A
C723       S2575   1.803   1_455  S
C724        C725   1.388       .  A
C725        C726   1.384       .  A
C725        H732   1.084       .  S
C726        S728   1.790       .  S
S727       C1647   1.803       .  S
S727        H730   1.407       .  S
S728        H729   1.407       .  S
C733        C734   1.399       .  A
C733        C738   1.416       .  A
C734        C735   1.398       .  A
C734       H2591   1.084   1_455  S
C735        C736   1.419       .  A
C735       S2587   1.803   1_455  S
C736        C737   1.400       .  A
C737        C738   1.403       .  A
C737        H744   1.084       .  S
C738        S740   1.795   1_565  S
S739       C1659   1.802       .  S
S739       H1666   1.399       .  S
S740        H741   1.407       .  S
H742       S2587   1.398   1_455  S
H743       C1658   1.084       .  S
C745       C2363   1.507   1_455  S
C745        C746   1.404       .  A
C745        C750   1.413   1_455  A
C746        C747   1.402       .  A
C746        H755   1.083       .  S
C747        C748   1.416       .  A
C747        S751   1.791       .  S
C748        C749   1.409       .  A
C749        C750   1.411   1_455  A
C749        H756   1.075   1_455  S
C750       S2600   1.803       .  S
S751        H754   1.406       .  S
S752       C1674   1.803       .  S
S752        H753   1.407       .  S
C757        C758   1.409       .  A
C757        C762   1.414       .  A
C758        C759   1.407       .  A
C758        H767   1.084       .  S
C759        C760   1.413       .  A
C759        S763   1.793       .  S
C760       C2362   1.509   1_455  S
C760        C761   1.406       .  A
C761        C762   1.408       .  A
C761       H2616   1.080   1_455  S
C762       S2612   1.803       .  S
S763        H766   1.406       .  S
S764       C1686   1.803       .  S
S764       H1689   1.407       .  S
H765       S2612   1.407   1_655  S
H768       C1685   1.080       .  S
C769        C770   1.409       .  A
C769        C774   1.410       .  A
C770        C771   1.405       .  A
C770        H779   1.083       .  S
C771        C772   1.416       .  A
C771        S775   1.799       .  S
C772        C773   1.410       .  A
C773        C774   1.400       .  A
C773        H780   1.083       .  S
C774        S776   1.796   1_565  S
S775        H778   1.399       .  S
C781        C782   1.403       .  A
C781        C786   1.416       .  A
C782        C783   1.397       .  A
C783        C784   1.410       .  A
C784        C785   1.393       .  A
C785        C786   1.397       .  A
C785        H792   1.083       .  S
C786        S788   1.800       .  S
S787        H790   1.405       .  S
S788        H789   1.406       .  S
C793        C794   1.399       .  A
C793        C798   1.412       .  A
C794        C795   1.402   1_455  A
C794        H803   1.083   1_455  S
C795        C796   1.411   1_655  A
C795        S799   1.802       .  S
C796       C2365   1.482   1_455  S
C796        C797   1.400       .  A
C797        C798   1.398       .  A
C797        H804   1.084       .  S
C798        S800   1.804       .  S
S799       H2650   1.406       .  S
S800        H801   1.406       .  S
H802       S1723   1.406       .  S
C805        C806   1.408       .  A
C805        C810   1.416       .  A
C806        C807   1.411       .  A
C806        H815   1.082       .  S
C807        C808   1.416       .  A
C807        S811   1.806   1_455  S
C808        C809   1.400       .  A
C809        C810   1.389       .  A
C810        S812   1.806   1_565  S
S811        H814   1.406       .  S
S812        H813   1.408   1_545  S
C817        C818   1.405       .  A
C817        C822   1.421       .  A
C818        C819   1.393       .  A
C818        H827   1.085       .  S
C819        C820   1.408       .  A
C819        S823   1.803       .  S
C820        C821   1.400       .  A
C821        C822   1.395       .  A
C821        H828   1.085       .  S
C822        S824   1.806       .  S
S823        H826   1.406       .  S
S824        H825   1.403       .  S
C829        C830   1.399       .  A
C829        C834   1.410       .  A
C830        C831   1.393       .  A
C830        H839   1.083       .  S
C831       C2680   1.419   1_455  A
C831        S835   1.803       .  S
C832       C1755   1.420       .  A
C832        C833   1.410       .  A
C833       C1758   1.409       .  A
C833        H840   1.082       .  S
C834       C2681   1.410   1_455  A
C834        S836   1.802       .  S
S835       H2686   1.408   1_455  S
S836        H837   1.406   1_455  S
H838       S1759   1.408       .  S
C841        C842   1.407       .  A
C841        C846   1.413       .  A
C842        C843   1.410   1_565  A
C842        H851   1.084       .  S
C843        S847   1.803       .  S
C844        C845   1.391       .  A
C845        H852   1.083       .  S
S847        H850   1.406       .  S
C853        C854   1.403       .  A
C853        C858   1.415       .  A
C854        C855   1.402       .  A
C854        H863   1.082       .  S
C855        C856   1.413       .  A
C855        S859   1.808       .  S
C856        C857   1.398       .  A
C857        C858   1.401       .  A
C857        H864   1.083       .  S
C858        S860   1.801       .  S
S859        H862   1.407       .  S
S860        H861   1.406       .  S
C865        C866   1.410       .  A
C865       C2718   1.414   1_455  A
C866       C2715   1.399       .  A
C866        H875   1.084       .  S
C867       C1790   1.397       .  A
C867        C868   1.413       .  A
C867       S1795   1.802       .  S
C868        C869   1.404       .  A
C869        C870   1.394       .  A
C869        H876   1.083       .  S
C870       C1789   1.413       .  A
C870        S872   1.800       .  S
S871       C2715   1.801       .  S
S871       H2722   1.396   1_455  S
S872        H873   1.407       .  S
H874       S1795   1.396       .  S
C877        C878   1.399       .  A
C877        C882   1.413       .  A
C878        C879   1.392       .  A
C878        H887   1.084       .  S
C879        S883   1.805       .  S
C880        C881   1.404       .  A
C881        H888   1.083       .  S
C882        S884   1.802       .  S
S883        H886   1.408       .  S
S884        H885   1.407       .  S
C889        C890   1.400       .  A
C889        C894   1.420       .  A
C890        C891   1.405       .  A
C890        H899   1.084       .  S
C891        C892   1.422       .  A
C891        S895   1.802       .  S
C892        C893   1.402       .  A
C893        C894   1.406       .  A
C893        H900   1.084       .  S
C894        S896   1.795       .  S
S895        H898   1.399       .  S
S896        H897   1.404       .  S
C901        C902   1.407       .  A
C901        C906   1.414       .  A
C902        H911   1.082       .  S
C903        C904   1.415       .  A
C903        S907   1.803       .  S
C904        C905   1.408       .  A
C905        H912   1.082       .  S
C906        S908   1.803       .  S
S907        H910   1.406       .  S
S908        H909   1.407       .  S
C913        C914   1.405       .  A
C913        C918   1.420       .  A
C914       C1839   1.407       .  A
C914        H923   1.084       .  S
C915       C2762   1.408   1_455  A
C915        C916   1.420       .  A
C915        S919   1.805       .  S
C916        C917   1.401       .  A
C917       C2766   1.401       .  A
C917        H924   1.083       .  S
C918       C1841   1.401       .  A
C918        S920   1.803       .  S
S919        H922   1.403       .  S
S920        H921   1.398       .  S
C925        H926   1.110       .  S
C925        C931   1.561       .  S
C925        C930   1.564       .  S
C925        C929   1.563       .  S
C927        H928   1.112       .  S
C927        C933   1.528       .  S
C927        C932   1.529       .  S
C927        C934   1.530       .  S
C929        C932   1.381       .  D
C929       C1375   1.507       .  S
C930        C933   1.375       .  D
C930       C1351   1.505       .  S
C931        C934   1.376       .  D
C931       C1363   1.509       .  S
C932       C1330   1.487       .  S
C933       C1315   1.494       .  S
C934       C1339   1.488       .  S
C935        H936   1.112       .  S
C935        C941   1.532       .  S
C935        C940   1.523       .  S
C935        C939   1.534       .  S
C937        H938   1.110       .  S
C937        C943   1.572       .  S
C937        C942   1.559       .  S
C937        C944   1.558       .  S
C939        C942   1.372       .  D
C939       C1279   1.484       .  S
C940        C943   1.379       .  D
C940       C1303   1.497       .  S
C941        C944   1.378       .  D
C941       C1291   1.489       .  S
C942       C1354   1.507       .  S
C943       C1366   1.509       .  S
C944       C1378   1.500       .  S
O945       Ni951   1.929       .  S
O945        C966   1.272       .  A
O946       Ni969   1.906       .  S
O946        C955   1.267       .  A
O947       Ni951   1.922       .  S
O947       Ni969   1.907       .  S
O947       Ni963   1.928       .  S
O947        H970   0.966       .  S
C948        O965   1.271       .  A
C948        O957   1.267       .  A
C948       C1267   1.486       .  S
O949       Ni968   1.921       .  S
O949        C955   1.270       .  A
O950       Ni968   1.910       .  S
O950        C952   1.273       .  A
Ni951       O954   1.933       .  S
Ni951       O956   1.910       .  S
C952        O962   1.273       .  A
C952       C1246   1.463       .  S
O953       Ni969   1.912       .  S
O953        C959   1.270       .  A
O954        C959   1.271       .  A
C955       C1342   1.474       .  S
O956        C958   1.273       .  A
O957       Ni968   1.920       .  S
C958        O964   1.274       .  A
C958       C1327   1.486       .  S
C959       C1318   1.477       .  S
H960        O961   0.966       .  S
O961       Ni969   1.924       .  S
O961       Ni963   1.906       .  S
O961       Ni968   1.917       .  S
O962       Ni963   1.933       .  S
Ni963       O967   1.898       .  S
Ni963       O965   1.920       .  S
O964       Ni969   1.929       .  S
C966        O967   1.265       .  A
C966       C1255   1.467       .  S
C971        H972   1.110       .  S
C971       C1439   1.562   1_545  S
C971        C976   1.562       .  S
C971       C1437   1.567   1_545  S
C973        H974   1.112       .  S
C973        C979   1.527       .  S
C973       C1440   1.521   1_545  S
C973       C2366   1.535   1_545  S
C975       C1433   1.568       .  S
C975        C978   1.378       .  D
C975       C1231   1.502       .  S
C976        C979   1.368       .  D
C976       C2146   1.508       .  S
C977       C1433   1.562       .  S
C977       C1904   1.379       .  D
C977       C2131   1.507       .  S
C978       C1435   1.521       .  S
C978       C1243   1.493       .  S
C979       C2182   1.481       .  S
C980       C1270   1.492       .  S
C981        H982   1.109       .  S
C981        C987   1.560       .  S
C981        C986   1.557       .  S
C981        C985   1.570       .  S
C983        H984   1.111       .  S
C983        C989   1.534       .  S
C983        C988   1.528       .  S
C983        C990   1.530       .  S
C985        C988   1.382       .  D
C985       C1219   1.507       .  S
C986        C989   1.374       .  D
C986       C1234   1.508       .  S
C987        C990   1.375       .  D
C987       C1210   1.511       .  S
C988       C1183   1.499       .  S
C989       C1174   1.491       .  S
C990       C1198   1.487       .  S
C991        H992   1.098       .  S
C991        C997   1.522       .  S
C991        C996   1.528       .  S
C991        C995   1.526       .  S
C993        H994   1.110       .  S
C993        C999   1.562       .  S
C993        C998   1.574       .  S
C993       C1000   1.563       .  S
C995        C998   1.402       .  D
C995       C1114   1.531       .  S
C996        C999   1.369       .  D
C996       C1126   1.473       .  S
C997       C1000   1.371       .  D
C997       C1102   1.482       .  S
C998       C1147   1.499       .  S
C999       C1135   1.516       .  S
C1000      C1159   1.517       .  S
C1001      H1002   1.109       .  S
C1001      C1469   1.573   1_545  S
C1001      C1006   1.556       .  S
C1001      C1005   1.555       .  S
C1003      H1466   1.112       .  S
C1003      C1009   1.540       .  S
C1003      C1008   1.532       .  S
C1003      C1472   1.531   1_545  S
H1004      C1465   1.112       .  S
C1005      C1008   1.367       .  D
C1005      C1150   1.495       .  S
C1006      C1009   1.373       .  D
C1007      C1463   1.574       .  S
C1007      C1010   1.386       .  D
C1008      C1066   1.488       .  S
C1010      C1465   1.531       .  S
O1011     Ni1017   1.938       .  S
O1011      C1032   1.276       .  A
O1012     Ni1035   1.887       .  S
O1012      C1021   1.258       .  A
O1013     Ni1017   1.918       .  S
O1013     Ni1035   1.904       .  S
O1013     Ni1029   1.904       .  S
O1013      H1036   0.966       .  S
C1014      O1031   1.261       .  A
C1014      O1023   1.273       .  A
C1014      C1282   1.464       .  S
O1015     Ni1034   1.928       .  S
O1015      C1021   1.273       .  A
O1016     Ni1034   1.901       .  S
O1016      C1018   1.268       .  A
Ni1017     O1020   1.938       .  S
Ni1017     O1022   1.910       .  S
C1018      O1028   1.279       .  A
C1018      C1294   1.493       .  S
O1019     Ni1035   1.882       .  S
O1019      C1025   1.259       .  A
O1020      C1025   1.275       .  A
C1021      C1078   1.476       .  S
O1022      C1024   1.272       .  A
O1023     Ni1034   1.938       .  S
C1024      O1030   1.274       .  A
C1024      C1063   1.490       .  S
C1025      C1090   1.462       .  S
H1026      O1027   0.966       .  S
O1027     Ni1035   1.910       .  S
O1027     Ni1029   1.907       .  S
O1027     Ni1034   1.914       .  S
O1028     Ni1029   1.959       .  S
Ni1029     O1033   1.890       .  S
Ni1029     O1031   1.885       .  S
O1030     Ni1035   1.948       .  S
C1032      O1033   1.262       .  A
C1032      C1306   1.474       .  S
O1037     Ni1043   1.931       .  S
O1037      C1058   1.273   1_554  A
O1038     Ni1985   1.892       .  S
O1038      C1047   1.263       .  A
O1039     Ni1043   1.916       .  S
O1039     Ni1523   1.899   1_545  S
O1039      H1062   0.964       .  S
C1040      O1057   1.262       .  A
C1040      O1049   1.273       .  A
C1040      C1171   1.476       .  S
O1041     Ni1060   1.936       .  S
O1041      C1047   1.274       .  A
O1042     Ni1060   1.919   1_556  S
O1042      C1968   1.276       .  A
Ni1043     O1046   1.934       .  S
Ni1043     O1048   1.892       .  S
C1044      O1054   1.275       .  A
C1044      C1195   1.486       .  S
O1045     Ni1523   1.903   1_545  S
O1045      C1051   1.269       .  A
O1046      C1051   1.273       .  A
C1047      C1099   1.468       .  S
O1049     Ni1060   1.941   1_556  S
C1050      O1972   1.266       .  A
C1050      O1056   1.272       .  A
C1050      C1123   1.467       .  S
C1051      C1111   1.467       .  S
H1052      O1053   0.966       .  S
O1053     Ni1985   1.924       .  S
O1053     Ni1517   1.903   1_554  S
O1053     Ni1060   1.924       .  S
Ni1055     O2440   1.941   1_545  S
Ni1055     O1983   1.880       .  S
Ni1055     O1519   1.896   1_545  S
Ni1055     O1963   1.905   1_556  S
Ni1055     O1515   1.902   1_546  S
O1056     Ni2447   1.925   1_545  S
O1057     Ni1517   1.897       .  S
C1058      O1059   1.257       .  A
C1058      C1186   1.465       .  S
Ni1061     O1507   1.906       .  S
Ni1061     O1501   1.899       .  S
C1063      C1064   1.404       .  A
C1063      C1068   1.418       .  A
C1064      C1065   1.403       .  A
C1064      H1073   1.083       .  S
C1065      C1066   1.410       .  A
C1065      S1531   1.802   1_545  S
C1066      C1067   1.401       .  A
C1067      C1068   1.406       .  A
C1067      H1074   1.083       .  S
C1068      S1070   1.797       .  S
S1069      C1527   1.803       .  S
S1069      H1072   1.406       .  S
S1070      H1071   1.408       .  S
C1075      C1934   1.502       .  S
C1075      C1076   1.407       .  A
C1075      C1080   1.415       .  A
C1076      C1077   1.409       .  A
C1076      H2009   1.082       .  S
C1077      C1078   1.417       .  A
C1077      S2005   1.802       .  S
C1078      C1079   1.390       .  A
C1079      C1080   1.387       .  A
C1079      H1086   1.084       .  S
C1080      S1082   1.784       .  S
S1082      H1083   1.407       .  S
H1084      S2005   1.407       .  S
C1087      C1933   1.484       .  S
C1087      C1088   1.404       .  A
C1087      C1092   1.423       .  A
C1088      C1089   1.395       .  A
C1088      H2021   1.084       .  S
C1089      C1090   1.409       .  A
C1089      S2017   1.803       .  S
C1090      C1091   1.397       .  A
C1091      C1092   1.391       .  A
C1091      H1098   1.085       .  S
C1092      S1094   1.807       .  S
S1094      H1095   1.403   1_545  S
H1096      S2017   1.406       .  S
C1099      C1100   1.404       .  A
C1099      C1104   1.409       .  A
C1100      C1101   1.405       .  A
C1100      H1109   1.083       .  S
C1101      C1102   1.408       .  A
C1101      S1105   1.806       .  S
C1102      C1103   1.402       .  A
C1103      C1104   1.396       .  A
C1103      H1110   1.080       .  S
C1104      S1106   1.805       .  S
S1105      H1108   1.407       .  S
S1106      H2031   1.405       .  S
C1111      C1112   1.384       .  A
C1111      C1116   1.404       .  A
C1112      C1113   1.399       .  A
C1112      H1121   1.085       .  S
C1113      C1114   1.443       .  A
C1113      S1117   1.802       .  S
C1114      C1115   1.410       .  A
C1115      C1116   1.400       .  A
C1115      H1122   1.065       .  S
C1116      S1118   1.803       .  S
S1117      H1120   1.408       .  S
S1118      H1119   1.406       .  S
C1123      C1124   1.401       .  A
C1123      C1128   1.414       .  A
C1124      C1125   1.394       .  A
C1124      H1133   1.084       .  S
C1125      C1126   1.421       .  A
C1125      S1129   1.813       .  S
C1126      C1127   1.396       .  A
C1127      C1128   1.391       .  A
C1127      H1134   1.081       .  S
C1128      S2054   1.803       .  S
S1129      H1132   1.398       .  S
S1130      H1131   1.400       .  S
C1135      C1136   1.405       .  A
C1135      C1140   1.412       .  A
C1136      C1137   1.405       .  A
C1136      H1145   1.065       .  S
C1137      C1138   1.411       .  A
C1137      S1141   1.806   1_545  S
C1138      C1930   1.511       .  S
C1138      C1139   1.414       .  A
C1139      C1140   1.409       .  A
C1139      H1146   1.082       .  S
C1140      S1142   1.792       .  S
S1141      H1606   1.406       .  S
S1142      H1143   1.405       .  S
H1144      S1603   1.406       .  S
C1147      C1148   1.403       .  A
C1147      C1152   1.411       .  A
C1148      C1149   1.404       .  A
C1148      H1157   1.081       .  S
C1149      C1150   1.409       .  A
C1149      S1153   1.802       .  S
C1150      C1151   1.404       .  A
C1151      C1152   1.410       .  A
C1151      H1158   1.080   1_545  S
C1152      S1154   1.801       .  S
S1153      H1156   1.406       .  S
S1154      H1155   1.407   1_545  S
C1159      C1160   1.408       .  A
C1159      C1164   1.414       .  A
C1160      C1161   1.407       .  A
C1160      H1169   1.079       .  S
C1161      C1162   1.415       .  A
C1161      S1165   1.801       .  S
C1162      C1931   1.515       .  S
C1162      C1163   1.410       .  A
C1163      C1164   1.412       .  A
C1163      H1170   1.082       .  S
C1164      S1166   1.796       .  S
S1165      H2092   1.407       .  S
S1166      H1167   1.407       .  S
C1171      C1172   1.402       .  A
C1171      C1176   1.413       .  A
C1172      C1173   1.398       .  A
C1172      H1181   1.084       .  S
C1173      C1174   1.420       .  A
C1173      S1177   1.805       .  S
C1174      C1175   1.403       .  A
C1175      C1176   1.398       .  A
C1175      H1182   1.084       .  S
C1176      S1640   1.802       .  S
S1177      H1180   1.402       .  S
S1178      C1638   1.802   1_545  S
S1178      H1179   1.407   1_545  S
C1183      C1184   1.408       .  A
C1183      C1188   1.417       .  A
C1184      C1185   1.404       .  A
C1184      H1193   1.082       .  S
C1185      C1186   1.413       .  A
C1186      C1187   1.389       .  A
C1187      C1188   1.385       .  A
C1187      H1194   1.084       .  S
C1188      S1190   1.791       .  S
S1189      C2109   1.803       .  S
S1189      H1192   1.407       .  S
S1190      H1191   1.407       .  S
C1195      C1196   1.399       .  A
C1195      C1200   1.417       .  A
C1196      C1197   1.398       .  A
C1197      C1198   1.418       .  A
C1198      C1199   1.400       .  A
C1199      C1200   1.404       .  A
C1199      H1206   1.084       .  S
C1200      S1202   1.795       .  S
S1201      C2121   1.803       .  S
S1201      H2128   1.398       .  S
S1202      H1203   1.407       .  S
H1205      C2120   1.084       .  S
C1207      C1208   1.403       .  A
C1207      C1212   1.414       .  A
C1208      C1209   1.400       .  A
C1208      H1217   1.083       .  S
C1209      C1210   1.415       .  A
C1209      S1213   1.792       .  S
C1210      C1211   1.408       .  A
C1211      C1212   1.411       .  A
C1211      H1218   1.076       .  S
S1213      H1216   1.406       .  S
S1214      C2136   1.803       .  S
S1214      H1215   1.407       .  S
C1219      C1220   1.408       .  A
C1219      C1224   1.414       .  A
C1220      C1221   1.405       .  A
C1220      H1229   1.084       .  S
C1221      C1222   1.412       .  A
C1221      S1225   1.793       .  S
C1222      C1223   1.407       .  A
C1223      C1224   1.408       .  A
S1225      H1228   1.406       .  S
S1226      C2148   1.803       .  S
S1226      H2151   1.407       .  S
H1230      C2147   1.079       .  S
C1231      C1232   1.409       .  A
C1231      C1236   1.410       .  A
C1232      C1233   1.405       .  A
C1232      H1241   1.083       .  S
C1233      C1234   1.416       .  A
C1233      S1237   1.799       .  S
C1234      C1235   1.410       .  A
C1235      C1236   1.399       .  A
C1235      H1242   1.083       .  S
C1236      S1238   1.795       .  S
S1237      H1240   1.399       .  S
S1238      H1701   1.405       .  S
H1239      S1700   1.405       .  S
C1243      C1244   1.403       .  A
C1243      C1248   1.417       .  A
C1244      C1245   1.399       .  A
C1244      H1715   1.083       .  S
C1245      C1246   1.411       .  A
C1245      S1711   1.801       .  S
C1246      C1247   1.393       .  A
C1247      C1248   1.398       .  A
C1247      H1254   1.083       .  S
C1248      S1250   1.800       .  S
S1249      C1707   1.800       .  S
S1249      H1252   1.405   1_565  S
S1250      H1251   1.406       .  S
H1253      C1706   1.083       .  S
C1255      C1256   1.398       .  A
C1255      C1260   1.412       .  A
C1256      C1257   1.401       .  A
C1256      H1265   1.083       .  S
C1257      C1258   1.411       .  A
C1257      S1261   1.801       .  S
C1258      C1259   1.400       .  A
C1259      C1260   1.399       .  A
C1259      H1266   1.084       .  S
C1260      S1262   1.803       .  S
S1262      H1263   1.406       .  S
H1264      S2185   1.406       .  S
C1267      C1268   1.408       .  A
C1267      C1272   1.417       .  A
C1268      C1269   1.411       .  A
C1268      H1277   1.082       .  S
C1269      C1270   1.416       .  A
C1269      S1273   1.806       .  S
C1270      C1271   1.398       .  A
C1271      C1272   1.388       .  A
C1271      H1740   1.081       .  S
C1272      S1274   1.806       .  S
S1273      H1276   1.407       .  S
S1274      H1275   1.408       .  S
H1278      C1733   1.081   1_545  S
C1279      C1280   1.404       .  A
C1279      C1284   1.422       .  A
C1280      C1281   1.392       .  A
C1280      H1289   1.085       .  S
C1281      C1282   1.408       .  A
C1281      S1285   1.803       .  S
C1282      C1283   1.400       .  A
C1283      C1284   1.395       .  A
C1283      H1290   1.085       .  S
C1284      S1286   1.806       .  S
S1285      H1288   1.407       .  S
S1286      H1287   1.403       .  S
C1291      C1292   1.399       .  A
C1291      C1296   1.410       .  A
C1292      C1293   1.394       .  A
C1292      H1301   1.083       .  S
C1293      S1297   1.803       .  S
C1294      C2217   1.419       .  A
C1294      C1295   1.410       .  A
C1295      C2220   1.410       .  A
C1295      H1302   1.082       .  S
C1296      S1298   1.802       .  S
S1298      H1299   1.406       .  S
H1300      S2221   1.408       .  S
C1303      C1304   1.407       .  A
C1303      C1308   1.413       .  A
C1304      C1305   1.409       .  A
C1304      H1313   1.084       .  S
C1305      C1768   1.416       .  A
C1305      S1309   1.803       .  S
C1306      C1767   1.416       .  A
C1306      C1307   1.391   1_545  A
C1307      C1770   1.390       .  A
C1307      H1314   1.084       .  S
C1308      C1769   1.391       .  A
C1308      S1772   1.789       .  S
S1309      H1312   1.406       .  S
S1310      C1770   1.788       .  S
S1310      H1773   1.407       .  S
H1311      S1772   1.406       .  S
C1315      C1316   1.403       .  A
C1315      C1320   1.416       .  A
C1316      C1317   1.403       .  A
C1316      H1325   1.082       .  S
C1317      C1318   1.414       .  A
C1317      S1321   1.808       .  S
C1318      C1319   1.397       .  A
C1319      C1320   1.402       .  A
C1319      H1326   1.083       .  S
C1320      S1322   1.801       .  S
S1321      H1324   1.407       .  S
S1322      H1323   1.406       .  S
C1327      C1328   1.410       .  A
C1328      H1337   1.084       .  S
C1329      C2252   1.398       .  A
C1329      C1330   1.414       .  A
C1329      S2257   1.802       .  S
C1330      C1331   1.404       .  A
C1331      C1332   1.393       .  A
C1331      H1338   1.081       .  S
C1332      C2251   1.413       .  A
C1332      S1334   1.800       .  S
S1334      H1335   1.407       .  S
H1336      S2257   1.396       .  S
C1339      C1340   1.401       .  A
C1339      C1344   1.419       .  A
C1340      C1341   1.396       .  A
C1340      H1349   1.084       .  S
C1341      C1804   1.412   1_545  A
C1341      S1345   1.804       .  S
C1342      C1803   1.413       .  A
C1342      C1343   1.400       .  A
C1343      C1806   1.402       .  A
C1343      H1350   1.084       .  S
C1344      C1805   1.402   1_545  A
C1344      S1346   1.799       .  S
S1345      H1348   1.408   1_545  S
S1346      H1347   1.390       .  S
C1351      C1352   1.400       .  A
C1351      C1356   1.419       .  A
C1352      C1353   1.405       .  A
C1352      H1361   1.084       .  S
C1353      C1354   1.423       .  A
C1353      S1357   1.802       .  S
C1354      C1355   1.403       .  A
C1355      C1356   1.408       .  A
C1355      H1362   1.084       .  S
C1356      S1358   1.795       .  S
S1357      H1360   1.398       .  S
S1358      H1359   1.404       .  S
C1363      C1364   1.406       .  A
C1363      C1368   1.414       .  A
C1364      C1827   1.408   1_545  A
C1364      H1373   1.081       .  S
C1365      C1826   1.409       .  A
C1365      C1366   1.415       .  A
C1365      S1369   1.802       .  S
C1366      C1367   1.409       .  A
C1367      C1830   1.408       .  A
C1367      H1374   1.082       .  S
C1368      C1829   1.409   1_545  A
C1368      S1370   1.804       .  S
S1369      H1372   1.406       .  S
S1370      H1371   1.406       .  S
C1375      C1376   1.406       .  A
C1375      C1380   1.422       .  A
C1376      C2301   1.408       .  A
C1376      H1385   1.084       .  S
C1377      C1378   1.420       .  A
C1377      S1381   1.805       .  S
C1378      C1379   1.402       .  A
C1379      H1386   1.083       .  S
C1380      C2303   1.402       .  A
C1380      S1382   1.802       .  S
S1381      H1384   1.403       .  S
S1382      H1383   1.395       .  S
C1387      H1388   1.110       .  S
C1387      C1393   1.560       .  S
C1387      C1392   1.562       .  S
C1387      C1391   1.563       .  S
C1389      H1390   1.112       .  S
C1389      C1395   1.527       .  S
C1389      C1394   1.529       .  S
C1389      C1396   1.529       .  S
C1391      C1394   1.381       .  D
C1391      C1837   1.507       .  S
C1392      C1395   1.375       .  D
C1392      C1813   1.503       .  S
C1393      C1396   1.376       .  D
C1393      C1825   1.508       .  S
C1394      C1792   1.487       .  S
C1395      C1777   1.493       .  S
C1396      C1801   1.487       .  S
C1397      H1398   1.112       .  S
C1397      C1403   1.530       .  S
C1397      C1402   1.524       .  S
C1397      C1401   1.533       .  S
C1399      H1400   1.110       .  S
C1399      C1405   1.572       .  S
C1399      C1404   1.557       .  S
C1399      C1406   1.557       .  S
C1401      C1404   1.371       .  D
C1401      C1741   1.484       .  S
C1402      C1405   1.380       .  D
C1402      C1765   1.498       .  S
C1403      C1406   1.377       .  D
C1403      C1753   1.488       .  S
C1404      C1816   1.506       .  S
C1405      C1828   1.510       .  S
C1406      C1840   1.498       .  S
O1407     Ni1413   1.930       .  S
O1407      C1428   1.272       .  A
O1408     Ni1431   1.907       .  S
O1408      C1417   1.267       .  A
O1409     Ni1413   1.922       .  S
O1409     Ni1431   1.907       .  S
O1409     Ni1425   1.926       .  S
O1409      H1432   0.966       .  S
C1410      O1427   1.270       .  A
C1410      O1419   1.267       .  A
C1410      C1729   1.485       .  S
O1411     Ni1430   1.921       .  S
O1411      C1417   1.271       .  A
O1412     Ni1430   1.911       .  S
O1412      C1414   1.274       .  A
Ni1413     O1416   1.934       .  S
Ni1413     O1418   1.909       .  S
C1414      O1424   1.273       .  A
C1414      C1708   1.463       .  S
O1415     Ni1431   1.910       .  S
O1415      C1421   1.269       .  A
O1416      C1421   1.271       .  A
C1417      C1804   1.475       .  S
O1418      C1420   1.273       .  A
O1419     Ni1430   1.920       .  S
C1420      O1426   1.274       .  A
C1420      C1789   1.484       .  S
C1421      C1780   1.476       .  S
H1422      O1423   0.966       .  S
O1423     Ni1431   1.924       .  S
O1423     Ni1425   1.906       .  S
O1423     Ni1430   1.916       .  S
O1424     Ni1425   1.934       .  S
Ni1425     O1429   1.898       .  S
Ni1425     O1427   1.920       .  S
O1426     Ni1431   1.928       .  S
C1428      O1429   1.265       .  A
C1428      C1717   1.467       .  S
C1433      H1434   1.110       .  S
C1433      C1438   1.562       .  S
C1435      H1436   1.112       .  S
C1435      C1441   1.526       .  S
C1435      C1904   1.535       .  S
C1437      C1440   1.377       .  D
C1437      C1693   1.501       .  S
C1438      C1441   1.368       .  D
C1438      C2608   1.508       .  S
C1439      C2366   1.380       .  D
C1439      C2593   1.507       .  S
C1440      C1705   1.492       .  S
C1441      C2644   1.482       .  S
C1442      C1732   1.493       .  S
C1443      H1444   1.109       .  S
C1443      C1449   1.562       .  S
C1443      C1448   1.557       .  S
C1443      C1447   1.572       .  S
C1445      H1446   1.111       .  S
C1445      C1451   1.535       .  S
C1445      C1450   1.528       .  S
C1445      C1452   1.530       .  S
C1447      C1450   1.384       .  D
C1447      C1681   1.509       .  S
C1448      C1451   1.373       .  D
C1448      C1696   1.508       .  S
C1449      C1452   1.375       .  D
C1449      C1672   1.512       .  S
C1450      C1645   1.500       .  S
C1451      C1636   1.491       .  S
C1452      C1660   1.487       .  S
C1453      H1454   1.099       .  S
C1453      C1459   1.523       .  S
C1453      C1458   1.530       .  S
C1453      C1457   1.527       .  S
C1455      H1456   1.110       .  S
C1455      C1461   1.561       .  S
C1455      C1460   1.573       .  S
C1455      C1462   1.563       .  S
C1457      C1460   1.402       .  D
C1457      C1576   1.531       .  S
C1458      C1461   1.369       .  D
C1458      C1588   1.473       .  S
C1459      C1462   1.372       .  D
C1459      C1564   1.484       .  S
C1460      C1609   1.499       .  S
C1461      C1597   1.515       .  S
C1462      C1621   1.517       .  S
C1463      H1464   1.109       .  S
C1463      C1468   1.556       .  S
C1463      C1467   1.555       .  S
C1465      C1471   1.540       .  S
C1465      C1470   1.533       .  S
C1467      C1470   1.368       .  D
C1467      C1612   1.494       .  S
C1468      C1471   1.371       .  D
C1469      C1472   1.384       .  D
C1470      C1528   1.490       .  S
O1473     Ni1479   1.939       .  S
O1473      C1494   1.276       .  A
O1474     Ni1497   1.887       .  S
O1474      C1483   1.258       .  A
O1475     Ni1479   1.917       .  S
O1475     Ni1497   1.903       .  S
O1475     Ni1491   1.904       .  S
O1475      H1498   0.966       .  S
C1476      O1493   1.261       .  A
C1476      O1485   1.273       .  A
C1476      C1744   1.464       .  S
O1477     Ni1496   1.928       .  S
O1477      C1483   1.273       .  A
O1478     Ni1496   1.902       .  S
O1478      C1480   1.268       .  A
Ni1479     O1482   1.939       .  S
Ni1479     O1484   1.912       .  S
C1480      O1490   1.279       .  A
C1480      C1756   1.493       .  S
O1481     Ni1497   1.883       .  S
O1481      C1487   1.259       .  A
O1482      C1487   1.275       .  A
C1483      C1540   1.475       .  S
O1484      C1486   1.273       .  A
O1485     Ni1496   1.939       .  S
C1486      O1492   1.275       .  A
C1486      C1525   1.492       .  S
C1487      C1552   1.464       .  S
H1488      O1489   0.966       .  S
O1489     Ni1497   1.911       .  S
O1489     Ni1491   1.906       .  S
O1489     Ni1496   1.914       .  S
O1490     Ni1491   1.959       .  S
Ni1491     O1495   1.890       .  S
Ni1491     O1493   1.885       .  S
O1492     Ni1497   1.950       .  S
C1494      O1495   1.262       .  A
C1494      C1768   1.474       .  S
O1499     Ni1505   1.932       .  S
O1499      C1520   1.273   1_554  A
O1500     Ni2447   1.893       .  S
O1500      C1509   1.263       .  A
O1501     Ni1505   1.915       .  S
O1501      H1524   0.963       .  S
C1502      O1519   1.262       .  A
C1502      O1511   1.273       .  A
C1502      C1633   1.477       .  S
O1503     Ni1522   1.938       .  S
O1503      C1509   1.274       .  A
O1504     Ni1522   1.919   1_556  S
O1504      C2430   1.277       .  A
Ni1505     O1508   1.936       .  S
Ni1505     O1510   1.892       .  S
C1506      O1516   1.275       .  A
C1506      C1657   1.486       .  S
O1507      C1513   1.269       .  A
O1508      C1513   1.273       .  A
C1509      C1561   1.470       .  S
O1511     Ni1522   1.944   1_556  S
C1512      O2434   1.266       .  A
C1512      O1518   1.272       .  A
C1512      C1585   1.467       .  S
C1513      C1573   1.469       .  S
H1514      O1515   0.966       .  S
O1515     Ni2447   1.923       .  S
O1515     Ni1522   1.923       .  S
Ni1517     O1978   1.941       .  S
Ni1517     O2445   1.880       .  S
Ni1517     O2425   1.904   1_556  S
O1518     Ni1985   1.926       .  S
C1520      O1521   1.257       .  A
C1520      C1648   1.465       .  S
C1525      C1526   1.405       .  A
C1525      C1530   1.418       .  A
C1526      C1527   1.404       .  A
C1526      H1535   1.083       .  S
C1527      C1528   1.410       .  A
C1528      C1529   1.402       .  A
C1529      C1530   1.407       .  A
C1529      H1536   1.083       .  S
C1530      S1532   1.797       .  S
S1531      H1534   1.406       .  S
S1532      H1533   1.408       .  S
C1537      C2396   1.502       .  S
C1537      C1538   1.407       .  A
C1537      C1542   1.415       .  A
C1538      C1539   1.408       .  A
C1538      H2471   1.082       .  S
C1539      C1540   1.416       .  A
C1539      S2467   1.802       .  S
C1540      C1541   1.390       .  A
C1541      C1542   1.387       .  A
C1541      H1548   1.084       .  S
C1542      S1544   1.784       .  S
S1544      H1545   1.407       .  S
H1546      S2467   1.407       .  S
C1549      C2395   1.486       .  S
C1549      C1550   1.404       .  A
C1549      C1554   1.423       .  A
C1550      C1551   1.396       .  A
C1550      H2483   1.084       .  S
C1551      C1552   1.410       .  A
C1551      S2479   1.803       .  S
C1552      C1553   1.397       .  A
C1553      C1554   1.392       .  A
C1553      H1560   1.085       .  S
C1554      S1556   1.806       .  S
S1556      H1557   1.403       .  S
H1558      S2479   1.406       .  S
C1561      C1562   1.405       .  A
C1561      C1566   1.409       .  A
C1562      C1563   1.406       .  A
C1562      H1571   1.083       .  S
C1563      C1564   1.408       .  A
C1563      S1567   1.806       .  S
C1564      C1565   1.402       .  A
C1565      C1566   1.396       .  A
C1565      H1572   1.079       .  S
C1566      S1568   1.804       .  S
S1567      H1570   1.407       .  S
S1568      H2493   1.406       .  S
C1573      C1574   1.385       .  A
C1573      C1578   1.404       .  A
C1574      C1575   1.400       .  A
C1574      H1583   1.084       .  S
C1575      C1576   1.443       .  A
C1575      S1579   1.802       .  S
C1576      C1577   1.410       .  A
C1577      C1578   1.400       .  A
C1577      H1584   1.065       .  S
C1578      S1580   1.802       .  S
S1579      H1582   1.408       .  S
S1580      H1581   1.406       .  S
C1585      C1586   1.400       .  A
C1585      C1590   1.414       .  A
C1586      C1587   1.394       .  A
C1586      H1595   1.084       .  S
C1587      C1588   1.421       .  A
C1587      S1591   1.813       .  S
C1588      C1589   1.395       .  A
C1589      C1590   1.390       .  A
C1589      H1596   1.081       .  S
C1590      S2516   1.804       .  S
S1591      H1594   1.398       .  S
S1592      H1593   1.401       .  S
C1597      C1598   1.405       .  A
C1597      C1602   1.411       .  A
C1598      C1599   1.405       .  A
C1598      H1607   1.065       .  S
C1599      C1600   1.411       .  A
C1599      S1603   1.807       .  S
C1600      C2392   1.510       .  S
C1600      C1601   1.413       .  A
C1601      C1602   1.408       .  A
C1601      H1608   1.082       .  S
C1602      S1604   1.793       .  S
S1604      H1605   1.405       .  S
C1609      C1610   1.402       .  A
C1609      C1614   1.411       .  A
C1610      C1611   1.403       .  A
C1610      H1619   1.081       .  S
C1611      C1612   1.409       .  A
C1611      S1615   1.802       .  S
C1612      C1613   1.404       .  A
C1613      C1614   1.410       .  A
C1613      H1620   1.080       .  S
C1614      S1616   1.801       .  S
S1615      H1618   1.406       .  S
S1616      H1617   1.406       .  S
C1621      C1622   1.407       .  A
C1621      C1626   1.414       .  A
C1622      C1623   1.407       .  A
C1622      H1631   1.079       .  S
C1623      C1624   1.415       .  A
C1623      S1627   1.801       .  S
C1624      C2393   1.515       .  S
C1624      C1625   1.410       .  A
C1625      C1626   1.411       .  A
C1625      H1632   1.082       .  S
C1626      S1628   1.797       .  S
S1627      H2554   1.406       .  S
S1628      H1629   1.407       .  S
C1633      C1634   1.402       .  A
C1633      C1638   1.413       .  A
C1634      C1635   1.398       .  A
C1634      H1643   1.084       .  S
C1635      C1636   1.419       .  A
C1635      S1639   1.804       .  S
C1636      C1637   1.403       .  A
C1637      C1638   1.399       .  A
C1637      H1644   1.084       .  S
S1639      H1642   1.402       .  S
S1640      H1641   1.407       .  S
C1645      C1646   1.408       .  A
C1645      C1650   1.418       .  A
C1646      C1647   1.404       .  A
C1646      H1655   1.082       .  S
C1647      C1648   1.414       .  A
C1648      C1649   1.388       .  A
C1649      C1650   1.385       .  A
C1649      H1656   1.084       .  S
C1650      S1652   1.791       .  S
S1651      C2571   1.803       .  S
S1651      H1654   1.407       .  S
S1652      H1653   1.407       .  S
C1657      C1658   1.399       .  A
C1657      C1662   1.417       .  A
C1658      C1659   1.398       .  A
C1659      C1660   1.419       .  A
C1660      C1661   1.400       .  A
C1661      C1662   1.403       .  A
C1661      H1668   1.084       .  S
C1662      S1664   1.795   1_565  S
S1663      C2583   1.803       .  S
S1663      H2590   1.398       .  S
S1664      H1665   1.407       .  S
H1667      C2582   1.084       .  S
C1669      C1670   1.403       .  A
C1669      C1674   1.414       .  A
C1670      C1671   1.401       .  A
C1670      H1679   1.083       .  S
C1671      C1672   1.416       .  A
C1671      S1675   1.791       .  S
C1672      C1673   1.409       .  A
C1673      C1674   1.411       .  A
C1673      H1680   1.076       .  S
S1675      H1678   1.406       .  S
S1676      C2598   1.803       .  S
S1676      H1677   1.407       .  S
C1681      C1682   1.409       .  A
C1681      C1686   1.415       .  A
C1682      C1683   1.406       .  A
C1682      H1691   1.084       .  S
C1683      C1684   1.413       .  A
C1683      S1687   1.793       .  S
C1684      C1685   1.407       .  A
C1685      C1686   1.408       .  A
S1687      H1690   1.405       .  S
S1688      C2610   1.803       .  S
S1688      H2613   1.407       .  S
H1692      C2609   1.079       .  S
C1693      C1694   1.408       .  A
C1693      C1698   1.410       .  A
C1694      C1695   1.405       .  A
C1694      H1703   1.083       .  S
C1695      C1696   1.417       .  A
C1695      S1699   1.799       .  S
C1696      C1697   1.410       .  A
C1697      C1698   1.399       .  A
C1697      H1704   1.083       .  S
C1698      S1700   1.796   1_565  S
S1699      H1702   1.399       .  S
C1705      C1706   1.403       .  A
C1705      C1710   1.416       .  A
C1706      C1707   1.398       .  A
C1707      C1708   1.411       .  A
C1708      C1709   1.394       .  A
C1709      C1710   1.399       .  A
C1709      H1716   1.083       .  S
C1710      S1712   1.800       .  S
S1711      H1714   1.405       .  S
S1712      H1713   1.406       .  S
C1717      C1718   1.398       .  A
C1717      C1722   1.412       .  A
C1718      C1719   1.401       .  A
C1718      H1727   1.083       .  S
C1719      C1720   1.411       .  A
C1719      S1723   1.801       .  S
C1720      C1721   1.400       .  A
C1721      C1722   1.399       .  A
C1721      H1728   1.084       .  S
C1722      S1724   1.803       .  S
S1724      H1725   1.406       .  S
H1726      S2647   1.406       .  S
C1729      C1730   1.408       .  A
C1729      C1734   1.417       .  A
C1730      C1731   1.411       .  A
C1730      H1739   1.082       .  S
C1731      C1732   1.416       .  A
C1731      S1735   1.806       .  S
C1732      C1733   1.399       .  A
C1733      C1734   1.388       .  A
C1734      S1736   1.806   1_565  S
S1735      H1738   1.406       .  S
S1736      H1737   1.408   1_545  S
C1741      C1742   1.404       .  A
C1741      C1746   1.421       .  A
C1742      C1743   1.393       .  A
C1742      H1751   1.085       .  S
C1743      C1744   1.408       .  A
C1743      S1747   1.803       .  S
C1744      C1745   1.400       .  A
C1745      C1746   1.395       .  A
C1745      H1752   1.085       .  S
C1746      S1748   1.806       .  S
S1747      H1750   1.407       .  S
S1748      H1749   1.404       .  S
C1753      C1754   1.399       .  A
C1753      C1758   1.410       .  A
C1754      C1755   1.394       .  A
C1754      H1763   1.083       .  S
C1755      S1759   1.803       .  S
C1756      C2679   1.420       .  A
C1756      C1757   1.411       .  A
C1757      C2682   1.410       .  A
C1757      H1764   1.082       .  S
C1758      S1760   1.802       .  S
S1760      H1761   1.406       .  S
H1762      S2683   1.408       .  S
C1765      C1766   1.407       .  A
C1765      C1770   1.414       .  A
C1766      C1767   1.410   1_565  A
C1766      H1775   1.084       .  S
C1767      S1771   1.803       .  S
C1768      C1769   1.391       .  A
C1769      H1776   1.083       .  S
S1771      H1774   1.406       .  S
C1777      C1778   1.403       .  A
C1777      C1782   1.416       .  A
C1778      C1779   1.403       .  A
C1778      H1787   1.082       .  S
C1779      C1780   1.414       .  A
C1779      S1783   1.808       .  S
C1780      C1781   1.397       .  A
C1781      C1782   1.401       .  A
C1781      H1788   1.083       .  S
C1782      S1784   1.800       .  S
S1783      H1786   1.407       .  S
S1784      H1785   1.406       .  S
C1789      C1790   1.410       .  A
C1790      H1799   1.084       .  S
C1791      C2714   1.398       .  A
C1791      C1792   1.414       .  A
C1791      S2719   1.802       .  S
C1792      C1793   1.404       .  A
C1793      C1794   1.393       .  A
C1793      H1800   1.081       .  S
C1794      C2713   1.413       .  A
C1794      S1796   1.800       .  S
S1796      H1797   1.407       .  S
H1798      S2719   1.396       .  S
C1801      C1802   1.402       .  A
C1801      C1806   1.418       .  A
C1802      C1803   1.396       .  A
C1802      H1811   1.084       .  S
C1803      S1807   1.804       .  S
C1804      C1805   1.400       .  A
C1805      H1812   1.084       .  S
C1806      S1808   1.798       .  S
S1807      H1810   1.407       .  S
S1808      H1809   1.390       .  S
C1813      C1814   1.400       .  A
C1813      C1818   1.419       .  A
C1814      C1815   1.404       .  A
C1814      H1823   1.084       .  S
C1815      C1816   1.422       .  A
C1815      S1819   1.802       .  S
C1816      C1817   1.403       .  A
C1817      C1818   1.407       .  A
C1817      H1824   1.084       .  S
C1818      S1820   1.795       .  S
S1819      H1822   1.398       .  S
S1820      H1821   1.404       .  S
C1825      C1826   1.406       .  A
C1825      C1830   1.414       .  A
C1826      H1835   1.081       .  S
C1827      C1828   1.415       .  A
C1827      S1831   1.803       .  S
C1828      C1829   1.409       .  A
C1829      H1836   1.082       .  S
C1830      S1832   1.804       .  S
S1831      H1834   1.407       .  S
S1832      H1833   1.407       .  S
C1837      C1838   1.406       .  A
C1837      C1842   1.421       .  A
C1838      C2763   1.408       .  A
C1838      H1847   1.084       .  S
C1839      C1840   1.420       .  A
C1839      S1843   1.805       .  S
C1840      C1841   1.402       .  A
C1841      H1848   1.083       .  S
C1842      C2765   1.402       .  A
C1842      S1844   1.801       .  S
S1843      H1846   1.403       .  S
S1844      H1845   1.395       .  S
C1849      H1850   1.110       .  S
C1849      C1855   1.561       .  S
C1849      C1854   1.563       .  S
C1849      C1853   1.564       .  S
C1851      H1852   1.112       .  S
C1851      C1857   1.528       .  S
C1851      C1856   1.529       .  S
C1851      C1858   1.530       .  S
C1853      C1856   1.381       .  D
C1853      C2299   1.506       .  S
C1854      C1857   1.375       .  D
C1854      C2275   1.506       .  S
C1855      C1858   1.376       .  D
C1855      C2287   1.509       .  S
C1856      C2254   1.488       .  S
C1857      C2239   1.492       .  S
C1858      C2263   1.488       .  S
C1859      H1860   1.112       .  S
C1859      C1865   1.532       .  S
C1859      C1864   1.524       .  S
C1859      C1863   1.534       .  S
C1861      H1862   1.110       .  S
C1861      C1867   1.572       .  S
C1861      C1866   1.560       .  S
C1861      C1868   1.558       .  S
C1863      C1866   1.374       .  D
C1863      C2203   1.488       .  S
C1864      C1867   1.379       .  D
C1864      C2227   1.499       .  S
C1865      C1868   1.377       .  D
C1865      C2215   1.488       .  S
C1866      C2278   1.508       .  S
C1867      C2290   1.508       .  S
C1868      C2302   1.501       .  S
O1869     Ni1875   1.928       .  S
O1869      C1890   1.272       .  A
O1870     Ni1893   1.907       .  S
O1870      C1879   1.267       .  A
O1871     Ni1875   1.921       .  S
O1871     Ni1893   1.908       .  S
O1871     Ni1887   1.927       .  S
O1871      H1894   0.966       .  S
C1872      O1889   1.270       .  A
C1872      O1881   1.267       .  A
C1872      C2191   1.483       .  S
O1873     Ni1892   1.921       .  S
O1873      C1879   1.271       .  A
O1874     Ni1892   1.909       .  S
O1874      C1876   1.273       .  A
Ni1875     O1878   1.932       .  S
Ni1875     O1880   1.909       .  S
C1876      O1886   1.273       .  A
C1876      C2170   1.463       .  S
O1877     Ni1893   1.909       .  S
O1877      C1883   1.268       .  A
O1878      C1883   1.270       .  A
C1879      C2266   1.475       .  S
O1880      C1882   1.273       .  A
O1881     Ni1892   1.920       .  S
C1882      O1888   1.275       .  A
C1882      C2251   1.485       .  S
C1883      C2242   1.474       .  S
H1884      O1885   0.966       .  S
O1885     Ni1893   1.921       .  S
O1885     Ni1887   1.906       .  S
O1885     Ni1892   1.915       .  S
O1886     Ni1887   1.935       .  S
Ni1887     O1891   1.898       .  S
Ni1887     O1889   1.917       .  S
O1888     Ni1893   1.930       .  S
C1890      O1891   1.264       .  A
C1890      C2179   1.466       .  S
C1895      H1896   1.110       .  S
C1895      C2363   1.563   1_545  S
C1895      C1900   1.563       .  S
C1895      C2361   1.567   1_545  S
C1897      H1898   1.112       .  S
C1897      C1903   1.527       .  S
C1897      C2364   1.522   1_545  S
C1899      C2357   1.567       .  S
C1899      C1902   1.377       .  D
C1899      C2155   1.503       .  S
C1900      C1903   1.369       .  D
C1901      C2357   1.562       .  S
C1902      C2359   1.523       .  S
C1902      C2167   1.493       .  S
C1904      C2194   1.491       .  S
C1905      H1906   1.109       .  S
C1905      C1911   1.561       .  S
C1905      C1910   1.559       .  S
C1905      C1909   1.572       .  S
C1907      H1908   1.111       .  S
C1907      C1913   1.536       .  S
C1907      C1912   1.528       .  S
C1907      C1914   1.532       .  S
C1909      C1912   1.383       .  D
C1909      C2143   1.507       .  S
C1910      C1913   1.375       .  D
C1910      C2158   1.509       .  S
C1911      C1914   1.376       .  D
C1911      C2134   1.515       .  S
C1912      C2107   1.501       .  S
C1913      C2098   1.493       .  S
C1914      C2122   1.486       .  S
C1915      H1916   1.099       .  S
C1915      C1921   1.523       .  S
C1915      C1920   1.528       .  S
C1915      C1919   1.527       .  S
C1917      H1918   1.110       .  S
C1917      C1923   1.560       .  S
C1917      C1922   1.571       .  S
C1917      C1924   1.562       .  S
C1919      C1922   1.402       .  D
C1919      C2038   1.529       .  S
C1920      C1923   1.370       .  D
C1920      C2050   1.474       .  S
C1921      C1924   1.372       .  D
C1921      C2026   1.484       .  S
C1922      C2071   1.499       .  S
C1923      C2059   1.512       .  S
C1924      C2083   1.516       .  S
C1925      H1926   1.109       .  S
C1925      C2393   1.573   1_545  S
C1925      C1930   1.556       .  S
C1925      C1929   1.556       .  S
C1927      H2390   1.112       .  S
C1927      C1933   1.540       .  S
C1927      C1932   1.532       .  S
C1927      C2396   1.531   1_545  S
H1928      C2389   1.112       .  S
C1929      C1932   1.368       .  D
C1929      C2074   1.494       .  S
C1930      C1933   1.372       .  D
C1931      C2387   1.573       .  S
C1931      C1934   1.385       .  D
C1932      C1990   1.491       .  S
C1934      C2389   1.532       .  S
O1935     Ni1941   1.937       .  S
O1935      C1956   1.276       .  A
O1936     Ni1959   1.889       .  S
O1936      C1945   1.259       .  A
O1937     Ni1941   1.918       .  S
O1937     Ni1959   1.904       .  S
O1937     Ni1953   1.905       .  S
O1937      H1960   0.966       .  S
C1938      O1955   1.261       .  A
C1938      O1947   1.273       .  A
C1938      C2206   1.464       .  S
O1939     Ni1958   1.927       .  S
O1939      C1945   1.273       .  A
O1940     Ni1958   1.901       .  S
O1940      C1942   1.268       .  A
Ni1941     O1944   1.937       .  S
Ni1941     O1946   1.911       .  S
C1942      O1952   1.280       .  A
C1942      C2218   1.493       .  S
O1943     Ni1959   1.883       .  S
O1943      C1949   1.259       .  A
O1944      C1949   1.275       .  A
C1945      C2002   1.477       .  S
O1946      C1948   1.273       .  A
O1947     Ni1958   1.939       .  S
C1948      O1954   1.275       .  A
C1948      C1987   1.492       .  S
C1949      C2014   1.462       .  S
H1950      O1951   0.966       .  S
O1951     Ni1959   1.911       .  S
O1951     Ni1953   1.907       .  S
O1951     Ni1958   1.914       .  S
O1952     Ni1953   1.960       .  S
Ni1953     O1957   1.893       .  S
Ni1953     O1955   1.887       .  S
O1954     Ni1959   1.951       .  S
C1956      O1957   1.262       .  A
C1956      C2230   1.475       .  S
O1961     Ni1967   1.933       .  S
O1961      C1982   1.274   1_554  A
O1962      C1971   1.263       .  A
O1963     Ni1967   1.916       .  S
O1963     Ni2447   1.901   1_545  S
O1963      H1986   0.964       .  S
C1964      O1981   1.263       .  A
C1964      O1973   1.273       .  A
C1964      C2095   1.478       .  S
O1965     Ni1984   1.937       .  S
O1965      C1971   1.274       .  A
O1966     Ni1984   1.920   1_556  S
Ni1967     O1970   1.934       .  S
Ni1967     O1972   1.894       .  S
C1968      O1978   1.275       .  A
C1968      C2119   1.485       .  S
O1969     Ni2447   1.903   1_545  S
O1969      C1975   1.269       .  A
O1970      C1975   1.273       .  A
C1971      C2023   1.471       .  S
O1973     Ni1984   1.943   1_556  S
C1974      O1980   1.271       .  A
C1974      C2047   1.467       .  S
C1975      C2035   1.466       .  S
H1976      O1977   0.966       .  S
O1977     Ni2441   1.902   1_554  S
O1977     Ni1984   1.923       .  S
Ni1979     O2443   1.897   1_545  S
Ni1979     O2439   1.902   1_546  S
O1981     Ni2441   1.899       .  S
C1982      O1983   1.257       .  A
C1982      C2110   1.467       .  S
Ni1985     O2431   1.904       .  S
Ni1985     O2425   1.901       .  S
C1987      C1988   1.405       .  A
C1987      C1992   1.418       .  A
C1988      C1989   1.404       .  A
C1988      H1997   1.083       .  S
C1989      C1990   1.410       .  A
C1989      S2455   1.803   1_545  S
C1990      C1991   1.402       .  A
C1991      C1992   1.407       .  A
C1991      H1998   1.083       .  S
C1992      S1994   1.797       .  S
S1993      C2451   1.803       .  S
S1993      H1996   1.406       .  S
S1994      H1995   1.408       .  S
C1999      C2000   1.407       .  A
C1999      C2004   1.415       .  A
C2000      C2001   1.409       .  A
C2001      C2002   1.417       .  A
C2002      C2003   1.391       .  A
C2003      C2004   1.388       .  A
C2003      H2010   1.083       .  S
C2004      S2006   1.786       .  S
S2006      H2007   1.407       .  S
C2011      C2012   1.404   1_655  A
C2011      C2016   1.423       .  A
C2012      C2013   1.396       .  A
C2013      C2014   1.409   1_455  A
C2014      C2015   1.397       .  A
C2015      C2016   1.391       .  A
C2015      H2022   1.085       .  S
C2016      S2018   1.806       .  S
S2018      H2019   1.403   1_545  S
C2023      C2024   1.405       .  A
C2023      C2028   1.410       .  A
C2024      C2025   1.405       .  A
C2024      H2033   1.083       .  S
C2025      C2026   1.407       .  A
C2025      S2029   1.806       .  S
C2026      C2027   1.403       .  A
C2027      C2028   1.398       .  A
C2027      H2034   1.080       .  S
C2028      S2030   1.806   1_655  S
S2029      H2032   1.407       .  S
C2035      C2036   1.384       .  A
C2035      C2040   1.404       .  A
C2036      C2037   1.399       .  A
C2036      H2045   1.084       .  S
C2037      C2038   1.443       .  A
C2037      S2041   1.802       .  S
C2038      C2039   1.410       .  A
C2039      C2040   1.399       .  A
C2039      H2046   1.066       .  S
C2040      S2042   1.803       .  S
S2041      H2044   1.408       .  S
S2042      H2043   1.406       .  S
C2047      C2048   1.400       .  A
C2047      C2052   1.414   1_655  A
C2048      C2049   1.394       .  A
C2048      H2057   1.084       .  S
C2049      C2050   1.422       .  A
C2049      S2053   1.813       .  S
C2050      C2051   1.396       .  A
C2051      C2052   1.391   1_655  A
C2051      H2058   1.082       .  S
S2053      H2056   1.397       .  S
S2054      H2055   1.401       .  S
C2059      C2060   1.404       .  A
C2059      C2064   1.411       .  A
C2060      C2061   1.404       .  A
C2060      H2069   1.065       .  S
C2061      C2062   1.411       .  A
C2061      S2065   1.807   1_545  S
C2062      C2063   1.413   1_655  A
C2063      C2064   1.408   1_455  A
C2063      H2070   1.082       .  S
C2064      S2066   1.792       .  S
S2065      H2530   1.406       .  S
S2066      H2067   1.405       .  S
H2068      S2527   1.406       .  S
C2071      C2072   1.402       .  A
C2071      C2076   1.412       .  A
C2072      C2073   1.403       .  A
C2072      H2081   1.081       .  S
C2073      C2074   1.409       .  A
C2073      S2077   1.802       .  S
C2074      C2075   1.403       .  A
C2075      C2076   1.410       .  A
C2075      H2082   1.080   1_545  S
C2076      S2078   1.800       .  S
S2077      H2080   1.406       .  S
S2078      H2079   1.406   1_545  S
C2083      C2084   1.406       .  A
C2083      C2088   1.414       .  A
C2084      C2085   1.405   1_655  A
C2084      H2093   1.078       .  S
C2085      C2086   1.414   1_455  A
C2085      S2089   1.800       .  S
C2086      C2087   1.410       .  A
C2087      C2088   1.411       .  A
C2087      H2094   1.082       .  S
C2088      S2090   1.796       .  S
S2090      H2091   1.407       .  S
C2095      C2096   1.403       .  A
C2095      C2100   1.413       .  A
C2096      C2097   1.399       .  A
C2096      H2105   1.084       .  S
C2097      C2098   1.420       .  A
C2097      S2101   1.805       .  S
C2098      C2099   1.403       .  A
C2099      C2100   1.399       .  A
C2099      H2106   1.083       .  S
C2100      S2564   1.802       .  S
S2101      H2104   1.402       .  S
S2102      C2562   1.802   1_545  S
S2102      H2103   1.407   1_545  S
C2107      C2108   1.409       .  A
C2107      C2112   1.418       .  A
C2108      C2109   1.405       .  A
C2108      H2117   1.082       .  S
C2109      C2110   1.414       .  A
C2110      C2111   1.388       .  A
C2111      C2112   1.386       .  A
C2111      H2118   1.083       .  S
C2112      S2114   1.791       .  S
S2113      H2116   1.407       .  S
S2114      H2115   1.406       .  S
C2119      C2120   1.399       .  A
C2119      C2124   1.416       .  A
C2120      C2121   1.398       .  A
C2121      C2122   1.419       .  A
C2122      C2123   1.400       .  A
C2123      C2124   1.403       .  A
C2123      H2130   1.084       .  S
C2124      S2126   1.795       .  S
S2126      H2127   1.407       .  S
C2131      C2132   1.404       .  A
C2131      C2136   1.413       .  A
C2132      C2133   1.402       .  A
C2132      H2141   1.083       .  S
C2133      C2134   1.416       .  A
C2133      S2137   1.792       .  S
C2134      C2135   1.409       .  A
C2135      C2136   1.411       .  A
C2135      H2142   1.075       .  S
S2137      H2140   1.406       .  S
S2138      H2139   1.407       .  S
C2143      C2144   1.408       .  A
C2143      C2148   1.414       .  A
C2144      C2145   1.406       .  A
C2144      H2153   1.084       .  S
C2145      C2146   1.413       .  A
C2145      S2149   1.793       .  S
C2146      C2147   1.406       .  A
C2147      C2148   1.407       .  A
S2149      H2152   1.406       .  S
C2155      C2156   1.409       .  A
C2155      C2160   1.410       .  A
C2156      C2157   1.406       .  A
C2156      H2165   1.083       .  S
C2157      C2158   1.417       .  A
C2157      S2161   1.799       .  S
C2158      C2159   1.410       .  A
C2159      C2160   1.400       .  A
C2159      H2166   1.083       .  S
C2160      S2162   1.797       .  S
S2161      H2164   1.399       .  S
S2162      H2625   1.405       .  S
H2163      S2624   1.405       .  S
C2167      C2168   1.404       .  A
C2167      C2172   1.417       .  A
C2168      C2169   1.399       .  A
C2168      H2639   1.083       .  S
C2169      C2170   1.411       .  A
C2169      S2635   1.801       .  S
C2170      C2171   1.394       .  A
C2171      C2172   1.398       .  A
C2171      H2178   1.083       .  S
C2172      S2174   1.800       .  S
S2173      C2631   1.801       .  S
S2173      H2176   1.405   1_565  S
S2174      H2175   1.407       .  S
H2177      C2630   1.083   1_545  S
C2179      C2180   1.398       .  A
C2179      C2184   1.412       .  A
C2180      C2181   1.401       .  A
C2180      H2189   1.083       .  S
C2181      C2182   1.411       .  A
C2181      S2185   1.802       .  S
C2182      C2183   1.400       .  A
C2183      C2184   1.398       .  A
C2183      H2190   1.084       .  S
C2184      S2186   1.803       .  S
S2186      H2187   1.406       .  S
C2191      C2192   1.408       .  A
C2191      C2196   1.415       .  A
C2192      C2193   1.410       .  A
C2192      H2201   1.082       .  S
C2193      C2194   1.416       .  A
C2193      S2197   1.806       .  S
C2194      C2195   1.399       .  A
C2195      C2196   1.386       .  A
C2195      H2664   1.080       .  S
C2196      S2198   1.806       .  S
S2197      H2200   1.406       .  S
S2198      H2199   1.408       .  S
H2202      C2657   1.081   1_545  S
C2203      C2204   1.406       .  A
C2203      C2208   1.422       .  A
C2204      C2205   1.393       .  A
C2204      H2213   1.085       .  S
C2205      C2206   1.407       .  A
C2205      S2209   1.803       .  S
C2206      C2207   1.399       .  A
C2207      C2208   1.395       .  A
C2207      H2214   1.085       .  S
C2208      S2210   1.806       .  S
S2209      H2212   1.407       .  S
S2210      H2211   1.403       .  S
C2215      C2216   1.399       .  A
C2215      C2220   1.411       .  A
C2216      C2217   1.393       .  A
C2216      H2225   1.083       .  S
C2217      S2221   1.803       .  S
C2218      C2219   1.410       .  A
C2219      H2226   1.082       .  S
C2220      S2222   1.802       .  S
S2222      H2223   1.406       .  S
C2227      C2228   1.407       .  A
C2227      C2232   1.413       .  A
C2228      C2229   1.410       .  A
C2228      H2237   1.084       .  S
C2229      C2692   1.417       .  A
C2229      S2233   1.803       .  S
C2230      C2691   1.416       .  A
C2230      C2231   1.391   1_545  A
C2231      C2694   1.390       .  A
C2231      H2238   1.084       .  S
C2232      C2693   1.392       .  A
C2232      S2696   1.787       .  S
S2233      H2236   1.406       .  S
S2234      C2694   1.787       .  S
S2234      H2697   1.407       .  S
H2235      S2696   1.407       .  S
C2239      C2240   1.403       .  A
C2239      C2244   1.416       .  A
C2240      C2241   1.402       .  A
C2240      H2249   1.082       .  S
C2241      C2242   1.413       .  A
C2241      S2245   1.808       .  S
C2242      C2243   1.397       .  A
C2243      C2244   1.401       .  A
C2243      H2250   1.083       .  S
C2244      S2246   1.800       .  S
S2245      H2248   1.407       .  S
S2246      H2247   1.406       .  S
C2251      C2252   1.410       .  A
C2252      H2261   1.084       .  S
C2253      C2254   1.414       .  A
C2254      C2255   1.404       .  A
C2255      C2256   1.393       .  A
C2255      H2262   1.081       .  S
C2256      S2258   1.800       .  S
S2258      H2259   1.407       .  S
C2263      C2264   1.402       .  A
C2263      C2268   1.418       .  A
C2264      C2265   1.396       .  A
C2264      H2273   1.084       .  S
C2265      C2728   1.412   1_545  A
C2265      S2269   1.804       .  S
C2266      C2727   1.412       .  A
C2266      C2267   1.400       .  A
C2267      C2730   1.402       .  A
C2267      H2274   1.084       .  S
C2268      C2729   1.402   1_545  A
C2268      S2270   1.798       .  S
S2269      H2272   1.408   1_545  S
S2270      H2271   1.391       .  S
C2275      C2276   1.401       .  A
C2275      C2280   1.420       .  A
C2276      C2277   1.405       .  A
C2276      H2285   1.084       .  S
C2277      C2278   1.422       .  A
C2277      S2281   1.801       .  S
C2278      C2279   1.403       .  A
C2279      C2280   1.408       .  A
C2279      H2286   1.084       .  S
C2280      S2282   1.795       .  S
S2281      H2284   1.398       .  S
S2282      H2283   1.404       .  S
C2287      C2288   1.407       .  A
C2287      C2292   1.414       .  A
C2288      C2751   1.409   1_545  A
C2288      H2297   1.081       .  S
C2289      C2750   1.408       .  A
C2289      C2290   1.415       .  A
C2289      S2293   1.803       .  S
C2290      C2291   1.409       .  A
C2291      C2754   1.408       .  A
C2291      H2298   1.082       .  S
C2292      C2753   1.409   1_545  A
C2292      S2294   1.804       .  S
S2293      H2296   1.406       .  S
S2294      H2295   1.406       .  S
C2299      C2300   1.406       .  A
C2299      C2304   1.421   1_655  A
C2300      H2309   1.084       .  S
C2301      C2302   1.420       .  A
C2301      S2305   1.805       .  S
C2302      C2303   1.401       .  A
C2303      H2310   1.083       .  S
C2304      S2306   1.801   1_455  S
S2305      H2308   1.403       .  S
S2306      H2307   1.395       .  S
C2311      H2312   1.110       .  S
C2311      C2317   1.560       .  S
C2311      C2316   1.562       .  S
C2311      C2315   1.564       .  S
C2313      H2314   1.112       .  S
C2313      C2319   1.528       .  S
C2313      C2318   1.529       .  S
C2313      C2320   1.529       .  S
C2315      C2318   1.381       .  D
C2315      C2761   1.506       .  S
C2316      C2319   1.375       .  D
C2316      C2737   1.507       .  S
C2317      C2320   1.376       .  D
C2317      C2749   1.507       .  S
C2318      C2716   1.489       .  S
C2319      C2701   1.491       .  S
C2320      C2725   1.488       .  S
C2321      H2322   1.112       .  S
C2321      C2327   1.532       .  S
C2321      C2326   1.525       .  S
C2321      C2325   1.534       .  S
C2323      H2324   1.110       .  S
C2323      C2329   1.573       .  S
C2323      C2328   1.560       .  S
C2323      C2330   1.558       .  S
C2325      C2328   1.373       .  D
C2325      C2665   1.488       .  S
C2326      C2329   1.379       .  D
C2326      C2689   1.498       .  S
C2327      C2330   1.378       .  D
C2327      C2677   1.488       .  S
C2328      C2740   1.508       .  S
C2329      C2752   1.510       .  S
C2330      C2764   1.501       .  S
O2331     Ni2337   1.927       .  S
O2331      C2352   1.271       .  A
O2332     Ni2355   1.905       .  S
O2332      C2341   1.266       .  A
O2333     Ni2337   1.921       .  S
O2333     Ni2355   1.907       .  S
O2333     Ni2349   1.927       .  S
O2333      H2356   0.966       .  S
C2334      O2351   1.270       .  A
C2334      O2343   1.267       .  A
C2334      C2653   1.484       .  S
O2335     Ni2354   1.922       .  S
O2335      C2341   1.271       .  A
O2336     Ni2354   1.910       .  S
O2336      C2338   1.274       .  A
Ni2337     O2340   1.932       .  S
Ni2337     O2342   1.909       .  S
C2338      O2348   1.273       .  A
C2338      C2632   1.463       .  S
O2339     Ni2355   1.908       .  S
O2339      C2345   1.268       .  A
O2340      C2345   1.270       .  A
C2341      C2728   1.474       .  S
O2342      C2344   1.273       .  A
O2343     Ni2354   1.920       .  S
C2344      O2350   1.274       .  A
C2344      C2713   1.485       .  S
C2345      C2704   1.473       .  S
H2346      O2347   0.966       .  S
O2347     Ni2355   1.921       .  S
O2347     Ni2349   1.906       .  S
O2347     Ni2354   1.916       .  S
O2348     Ni2349   1.934       .  S
Ni2349     O2353   1.900       .  S
Ni2349     O2351   1.918       .  S
O2350     Ni2355   1.930       .  S
C2352      O2353   1.265       .  A
C2352      C2641   1.467       .  S
C2357      H2358   1.110       .  S
C2357      C2362   1.563       .  S
C2359      H2360   1.112       .  S
C2359      C2365   1.526       .  S
C2361      C2364   1.376       .  D
C2361      C2617   1.503       .  S
C2362      C2365   1.369       .  D
C2364      C2629   1.491       .  S
C2366      C2656   1.492       .  S
C2367      H2368   1.109       .  S
C2367      C2373   1.562       .  S
C2367      C2372   1.558       .  S
C2367      C2371   1.573       .  S
C2369      H2370   1.111       .  S
C2369      C2375   1.535       .  S
C2369      C2374   1.528       .  S
C2369      C2376   1.530       .  S
C2371      C2374   1.383       .  D
C2371      C2605   1.507       .  S
C2372      C2375   1.373       .  D
C2372      C2620   1.510       .  S
C2373      C2376   1.376       .  D
C2373      C2596   1.514       .  S
C2374      C2569   1.502       .  S
C2375      C2560   1.490       .  S
C2376      C2584   1.486       .  S
C2377      H2378   1.099       .  S
C2377      C2383   1.522       .  S
C2377      C2382   1.529       .  S
C2377      C2381   1.527       .  S
C2379      H2380   1.110       .  S
C2379      C2385   1.561       .  S
C2379      C2384   1.573       .  S
C2379      C2386   1.563       .  S
C2381      C2384   1.402       .  D
C2381      C2500   1.530       .  S
C2382      C2385   1.369       .  D
C2382      C2512   1.473       .  S
C2383      C2386   1.371       .  D
C2383      C2488   1.482       .  S
C2384      C2533   1.499       .  S
C2385      C2521   1.513       .  S
C2386      C2545   1.517       .  S
C2387      H2388   1.109       .  S
C2387      C2392   1.557       .  S
C2387      C2391   1.557       .  S
C2389      C2395   1.540       .  S
C2389      C2394   1.532       .  S
C2391      C2394   1.368       .  D
C2391      C2536   1.494       .  S
C2392      C2395   1.372       .  D
C2393      C2396   1.385       .  D
C2394      C2452   1.491       .  S
O2397     Ni2403   1.939       .  S
O2397      C2418   1.276       .  A
O2398     Ni2421   1.889       .  S
O2398      C2407   1.259       .  A
O2399     Ni2403   1.918       .  S
O2399     Ni2421   1.905       .  S
O2399     Ni2415   1.906       .  S
O2399      H2422   0.966       .  S
C2400      O2417   1.262       .  A
C2400      O2409   1.274       .  A
C2400      C2668   1.467       .  S
O2401     Ni2420   1.930       .  S
O2401      C2407   1.274       .  A
O2402     Ni2420   1.902       .  S
O2402      C2404   1.268       .  A
Ni2403     O2406   1.937       .  S
Ni2403     O2408   1.912       .  S
C2404      O2414   1.279       .  A
C2404      C2680   1.493       .  S
O2405     Ni2421   1.883       .  S
O2405      C2411   1.259       .  A
O2406      C2411   1.275       .  A
C2407      C2464   1.477       .  S
O2408      C2410   1.273       .  A
O2409     Ni2420   1.940       .  S
C2410      O2416   1.276       .  A
C2410      C2449   1.493       .  S
C2411      C2476   1.461       .  S
H2412      O2413   0.966       .  S
O2413     Ni2421   1.910       .  S
O2413     Ni2415   1.908       .  S
O2413     Ni2420   1.914       .  S
O2414     Ni2415   1.958       .  S
Ni2415     O2419   1.893       .  S
Ni2415     O2417   1.888       .  S
O2416     Ni2421   1.951       .  S
C2418      O2419   1.262       .  A
C2418      C2692   1.476       .  S
O2423     Ni2429   1.934       .  S
O2423      C2444   1.274   1_554  A
O2424      C2433   1.262       .  A
O2425     Ni2429   1.915       .  S
O2425      H2448   0.963       .  S
C2426      O2443   1.262       .  A
C2426      O2435   1.273       .  A
C2426      C2557   1.476       .  S
O2427     Ni2446   1.936       .  S
O2427      C2433   1.274       .  A
O2428     Ni2446   1.920   1_556  S
Ni2429     O2432   1.935       .  S
Ni2429     O2434   1.894       .  S
C2430      O2440   1.275       .  A
C2430      C2581   1.486       .  S
O2431      C2437   1.269       .  A
O2432      C2437   1.273       .  A
C2433      C2485   1.468       .  S
O2435     Ni2446   1.942   1_556  S
C2436      O2442   1.272       .  A
C2436      C2509   1.465       .  S
C2437      C2497   1.467       .  S
H2438      O2439   0.966       .  S
O2439     Ni2446   1.924       .  S
C2444      O2445   1.257       .  A
C2444      C2572   1.469       .  S
C2449      C2450   1.405       .  A
C2449      C2454   1.418       .  A
C2450      C2451   1.404       .  A
C2450      H2459   1.083       .  S
C2451      C2452   1.410       .  A
C2452      C2453   1.402       .  A
C2453      C2454   1.407       .  A
C2453      H2460   1.083       .  S
C2454      S2456   1.797       .  S
S2455      H2458   1.406       .  S
S2456      H2457   1.408       .  S
C2461      C2462   1.407       .  A
C2461      C2466   1.415       .  A
C2462      C2463   1.409       .  A
C2463      C2464   1.417       .  A
C2464      C2465   1.390       .  A
C2465      C2466   1.388       .  A
C2465      H2472   1.084       .  S
C2466      S2468   1.784       .  S
S2468      H2469   1.407       .  S
C2473      C2474   1.404   1_655  A
C2473      C2478   1.422       .  A
C2474      C2475   1.395       .  A
C2475      C2476   1.409   1_455  A
C2476      C2477   1.397       .  A
C2477      C2478   1.391       .  A
C2477      H2484   1.085       .  S
C2478      S2480   1.806       .  S
S2480      H2481   1.403       .  S
C2485      C2486   1.405       .  A
C2485      C2490   1.409       .  A
C2486      C2487   1.406       .  A
C2486      H2495   1.083       .  S
C2487      C2488   1.408       .  A
C2487      S2491   1.806       .  S
C2488      C2489   1.402       .  A
C2489      C2490   1.396       .  A
C2489      H2496   1.079       .  S
C2490      S2492   1.805   1_655  S
S2491      H2494   1.407       .  S
C2497      C2498   1.385       .  A
C2497      C2502   1.404       .  A
C2498      C2499   1.399       .  A
C2498      H2507   1.085       .  S
C2499      C2500   1.443       .  A
C2499      S2503   1.802       .  S
C2500      C2501   1.410       .  A
C2501      C2502   1.399       .  A
C2501      H2508   1.066       .  S
C2502      S2504   1.803       .  S
S2503      H2506   1.408       .  S
S2504      H2505   1.406       .  S
C2509      C2510   1.399       .  A
C2509      C2514   1.414   1_655  A
C2510      C2511   1.393       .  A
C2510      H2519   1.084       .  S
C2511      C2512   1.421       .  A
C2511      S2515   1.813       .  S
C2512      C2513   1.396       .  A
C2513      C2514   1.391   1_655  A
C2513      H2520   1.081       .  S
S2515      H2518   1.397       .  S
S2516      H2517   1.401       .  S
C2521      C2522   1.404       .  A
C2521      C2526   1.411       .  A
C2522      C2523   1.404       .  A
C2522      H2531   1.064       .  S
C2523      C2524   1.410       .  A
C2523      S2527   1.807       .  S
C2524      C2525   1.414   1_655  A
C2525      C2526   1.408   1_455  A
C2525      H2532   1.082       .  S
C2526      S2528   1.793   1_655  S
S2528      H2529   1.405   1_455  S
C2533      C2534   1.402       .  A
C2533      C2538   1.412       .  A
C2534      C2535   1.403       .  A
C2534      H2543   1.081       .  S
C2535      C2536   1.409       .  A
C2535      S2539   1.802       .  S
C2536      C2537   1.404       .  A
C2537      C2538   1.410       .  A
C2537      H2544   1.081       .  S
C2538      S2540   1.800       .  S
S2539      H2542   1.406       .  S
S2540      H2541   1.407       .  S
C2545      C2546   1.407       .  A
C2545      C2550   1.414       .  A
C2546      C2547   1.406   1_655  A
C2546      H2555   1.079       .  S
C2547      C2548   1.415   1_455  A
C2547      S2551   1.800       .  S
C2548      C2549   1.409       .  A
C2549      C2550   1.412       .  A
C2549      H2556   1.082       .  S
C2550      S2552   1.796       .  S
S2552      H2553   1.407       .  S
C2557      C2558   1.402       .  A
C2557      C2562   1.413       .  A
C2558      C2559   1.398       .  A
C2558      H2567   1.084       .  S
C2559      C2560   1.420       .  A
C2559      S2563   1.804       .  S
C2560      C2561   1.403       .  A
C2561      C2562   1.398       .  A
C2561      H2568   1.084       .  S
S2563      H2566   1.402       .  S
S2564      H2565   1.407       .  S
C2569      C2570   1.409       .  A
C2569      C2574   1.419       .  A
C2570      C2571   1.405       .  A
C2570      H2579   1.082       .  S
C2571      C2572   1.414       .  A
C2572      C2573   1.389       .  A
C2573      C2574   1.387       .  A
C2573      H2580   1.083       .  S
C2574      S2576   1.792       .  S
S2575      H2578   1.407       .  S
S2576      H2577   1.406       .  S
C2581      C2582   1.399       .  A
C2581      C2586   1.417       .  A
C2582      C2583   1.398       .  A
C2583      C2584   1.419       .  A
C2584      C2585   1.400       .  A
C2585      C2586   1.403       .  A
C2585      H2592   1.084       .  S
C2586      S2588   1.795   1_565  S
S2588      H2589   1.407       .  S
C2593      C2594   1.403       .  A
C2593      C2598   1.414       .  A
C2594      C2595   1.401       .  A
C2594      H2603   1.083       .  S
C2595      C2596   1.416       .  A
C2595      S2599   1.791       .  S
C2596      C2597   1.409       .  A
C2597      C2598   1.412       .  A
C2597      H2604   1.076       .  S
S2599      H2602   1.406       .  S
S2600      H2601   1.407       .  S
C2605      C2606   1.409       .  A
C2605      C2610   1.414       .  A
C2606      C2607   1.407       .  A
C2606      H2615   1.084       .  S
C2607      C2608   1.413       .  A
C2607      S2611   1.793       .  S
C2608      C2609   1.406       .  A
C2609      C2610   1.407       .  A
S2611      H2614   1.406       .  S
C2617      C2618   1.409       .  A
C2617      C2622   1.410       .  A
C2618      C2619   1.406       .  A
C2618      H2627   1.083       .  S
C2619      C2620   1.417       .  A
C2619      S2623   1.799       .  S
C2620      C2621   1.411       .  A
C2621      C2622   1.400       .  A
C2621      H2628   1.083       .  S
C2622      S2624   1.796   1_565  S
S2623      H2626   1.399       .  S
C2629      C2630   1.403       .  A
C2629      C2634   1.416       .  A
C2630      C2631   1.399       .  A
C2631      C2632   1.412       .  A
C2632      C2633   1.394       .  A
C2633      C2634   1.398       .  A
C2633      H2640   1.083       .  S
C2634      S2636   1.799       .  S
S2635      H2638   1.405       .  S
S2636      H2637   1.407       .  S
C2641      C2642   1.399       .  A
C2641      C2646   1.412       .  A
C2642      C2643   1.402       .  A
C2642      H2651   1.083       .  S
C2643      C2644   1.411       .  A
C2643      S2647   1.802       .  S
C2644      C2645   1.400       .  A
C2645      C2646   1.398       .  A
C2645      H2652   1.084       .  S
C2646      S2648   1.803       .  S
S2648      H2649   1.406       .  S
C2653      C2654   1.408       .  A
C2653      C2658   1.416       .  A
C2654      C2655   1.411       .  A
C2654      H2663   1.082       .  S
C2655      C2656   1.416       .  A
C2655      S2659   1.806       .  S
C2656      C2657   1.399       .  A
C2657      C2658   1.387       .  A
C2658      S2660   1.806   1_565  S
S2659      H2662   1.406       .  S
S2660      H2661   1.408   1_545  S
C2665      C2666   1.405       .  A
C2665      C2670   1.422       .  A
C2666      C2667   1.394       .  A
C2666      H2675   1.085       .  S
C2667      C2668   1.409       .  A
C2667      S2671   1.803       .  S
C2668      C2669   1.400       .  A
C2669      C2670   1.396       .  A
C2669      H2676   1.085       .  S
C2670      S2672   1.806       .  S
S2671      H2674   1.407       .  S
S2672      H2673   1.403       .  S
C2677      C2678   1.399       .  A
C2677      C2682   1.410       .  A
C2678      C2679   1.393       .  A
C2678      H2687   1.083       .  S
C2679      S2683   1.803       .  S
C2680      C2681   1.411       .  A
C2681      H2688   1.082       .  S
C2682      S2684   1.802       .  S
S2684      H2685   1.406       .  S
C2689      C2690   1.408       .  A
C2689      C2694   1.413       .  A
C2690      C2691   1.410   1_565  A
C2690      H2699   1.084       .  S
C2691      S2695   1.803       .  S
C2692      C2693   1.392       .  A
C2693      H2700   1.084       .  S
S2695      H2698   1.406       .  S
C2701      C2702   1.403       .  A
C2701      C2706   1.416       .  A
C2702      C2703   1.402       .  A
C2702      H2711   1.082       .  S
C2703      C2704   1.413       .  A
C2703      S2707   1.808       .  S
C2704      C2705   1.397       .  A
C2705      C2706   1.400       .  A
C2705      H2712   1.083       .  S
C2706      S2708   1.801       .  S
S2707      H2710   1.407       .  S
S2708      H2709   1.406       .  S
C2713      C2714   1.410       .  A
C2714      H2723   1.084       .  S
C2715      C2716   1.414   1_455  A
C2716      C2717   1.404       .  A
C2717      C2718   1.394       .  A
C2717      H2724   1.081       .  S
C2718      S2720   1.800       .  S
S2720      H2721   1.407       .  S
C2725      C2726   1.401       .  A
C2725      C2730   1.419       .  A
C2726      C2727   1.396       .  A
C2726      H2735   1.084       .  S
C2727      S2731   1.804       .  S
C2728      C2729   1.400       .  A
C2729      H2736   1.084       .  S
C2730      S2732   1.798       .  S
S2731      H2734   1.408       .  S
S2732      H2733   1.391       .  S
C2737      C2738   1.401       .  A
C2737      C2742   1.420       .  A
C2738      C2739   1.406       .  A
C2738      H2747   1.084       .  S
C2739      C2740   1.422       .  A
C2739      S2743   1.802       .  S
C2740      C2741   1.403       .  A
C2741      C2742   1.408       .  A
C2741      H2748   1.084       .  S
C2742      S2744   1.795       .  S
S2743      H2746   1.399       .  S
S2744      H2745   1.404       .  S
C2749      C2750   1.406       .  A
C2749      C2754   1.413       .  A
C2750      H2759   1.081       .  S
C2751      C2752   1.415       .  A
C2751      S2755   1.803       .  S
C2752      C2753   1.409       .  A
C2753      H2760   1.082       .  S
C2754      S2756   1.804       .  S
S2755      H2758   1.406       .  S
S2756      H2757   1.406       .  S
C2761      C2762   1.406       .  A
C2761      C2766   1.421   1_655  A
C2762      H2771   1.084       .  S
C2763      C2764   1.421       .  A
C2763      S2767   1.805       .  S
C2764      C2765   1.401       .  A
C2765      H2772   1.083       .  S
C2766      S2768   1.801   1_455  S
S2767      H2770   1.403       .  S
S2768      H2769   1.395       .  S
