geometry optimzed in LAMMPS
_audit_creation_date              2020-11-30 
_audit_creation_method            'lammps2cif' 
_symmetry_space_group_name_H-M    'P1' 
_symmetry_Int_Tables_number       1 
_symmetry_cell_setting            triclinic 
loop_ 
_symmetry_equiv_pos_as_xyz 
  x,y,z 
_cell_length_a                    43.06007121 
_cell_length_b                    43.3909154412877 
_cell_length_c                    51.90655434739408 
_cell_angle_alpha                 89.93516591094996 
_cell_angle_beta                  90.05504405638176 
_cell_angle_gamma                 120.28366966355406 
loop_ 
_atom_site_label 
_atom_site_type_symbol 
_atom_site_fract_x 
_atom_site_fract_y 
_atom_site_fract_z 
_atom_site_charge 
Zn1        Zn  0.86027921  0.37395807  0.10349829     1.49700
Zn2        Zn  0.81061906  0.33557562  0.05590962     1.49400
Zn3        Zn  0.88978456  0.34950143  0.05825378     1.49100
Zn4        Zn  0.82842092  0.29040060  0.09561218     1.49500
O5          O  0.84702970  0.33683396  0.07829397    -1.83300
O6          O  0.83769236  0.40364759  0.09696337    -0.74000
O7          O  0.82507511  0.33755855  0.01934473    -0.73800
O8          O  0.93568495  0.38690012  0.07656009    -0.73300
O9          O  0.80301749  0.37683266  0.06298057    -0.74000
O10         O  0.91383015  0.40428977  0.10835658    -0.73600
O11         O  0.88424755  0.35917768  0.02063241    -0.74200
O12         O  0.85015851  0.26270843  0.07835997    -0.73600
O13         O  0.76285680  0.29096773  0.06132761    -0.74300
O14         O  0.89259790  0.30585975  0.05432506    -0.73700
O15         O  0.77345503  0.26116988  0.09165244    -0.74200
O16         O  0.83866227  0.29850246  0.13448433    -0.74100
O17         O  0.84325814  0.35190304  0.13734113    -0.73900
C18         C  0.81483455  0.40091650  0.08026322     0.77900
C19         C  0.85505726  0.34848626  0.00807394     0.78400
C20         C  0.94048560  0.40550425  0.09683618     0.77400
C21         C  0.87545864  0.27357231  0.06172252     0.77700
C22         C  0.75181474  0.26469103  0.07674362     0.78900
C23         C  0.83997260  0.32395411  0.14776362     0.77900
Zn24       Zn  0.88100577  0.34029710  0.30702789     1.49700
Zn25       Zn  0.85644147  0.37450825  0.35024555     1.49400
Zn26       Zn  0.80418393  0.33264163  0.30640803     1.49100
Zn27       Zn  0.82261690  0.28796546  0.34771015     1.49500
O28         O  0.84060053  0.33311718  0.32801110    -1.83300
O29         O  0.92760620  0.37538399  0.32477148    -0.74000
O30         O  0.83494385  0.40615166  0.34315769    -0.73800
O31         O  0.81684459  0.33219168  0.26961751    -0.73300
O32         O  0.91012424  0.40285978  0.35243432    -0.74000
O33         O  0.87512594  0.34965637  0.26973049    -0.73600
O34         O  0.79573937  0.37397750  0.31293190    -0.74200
O35         O  0.76797308  0.25704207  0.34236489    -0.73600
O36         O  0.84307416  0.35685149  0.38571333    -0.74300
O37         O  0.75804417  0.28823779  0.31280801    -0.73700
O38         O  0.83169015  0.30073231  0.38653530    -0.74200
O39         O  0.84553277  0.25833673  0.33404600    -0.74100
O40         O  0.88223960  0.29524672  0.30409529    -0.73900
C41         C  0.93431115  0.39765581  0.34295078     0.77900
C42         C  0.80971142  0.40103795  0.32779902     0.78400
C43         C  0.84579404  0.34027338  0.25773453     0.77400
C44         C  0.74680140  0.26094833  0.32719768     0.77700
C45         C  0.83708656  0.32912123  0.39811767     0.78900
C46         C  0.86792720  0.26540348  0.31559787     0.77900
Zn47       Zn  0.53875493  0.20213197  0.10193942     1.49700
Zn48       Zn  0.52048464  0.13900935  0.06256938     1.49400
Zn49       Zn  0.46078929  0.13573082  0.10141616     1.49100
Zn50       Zn  0.48615249  0.19021124  0.05643407     1.49500
O51         O  0.50197702  0.16654506  0.08031575    -1.83300
O52         O  0.58639899  0.20557352  0.09600232    -0.74000
O53         O  0.49868913  0.08858174  0.07914727    -0.73800
O54         O  0.46598863  0.15454726  0.13763371    -0.73300
O55         O  0.57559799  0.16399536  0.06671894    -0.74000
O56         O  0.52540186  0.18929477  0.13856896    -0.73600
O57         O  0.46066809  0.09037532  0.10728578    -0.74200
O58         O  0.43217925  0.16540209  0.05327331    -0.73600
O59         O  0.50886379  0.13826702  0.02399374    -0.74300
O60         O  0.41372740  0.12395259  0.08361773    -0.73700
O61         O  0.50012185  0.18469141  0.02167516    -0.74200
O62         O  0.50713066  0.24271221  0.06358879    -0.74100
O63         O  0.54443119  0.25048866  0.09573327    -0.73900
C64         C  0.59733770  0.18944186  0.08141468     0.77900
C65         C  0.47624350  0.07476884  0.09773948     0.78400
C66         C  0.49539361  0.17195300  0.15012173     0.77400
C67         C  0.40697131  0.13821421  0.06450142     0.77700
C68         C  0.50370236  0.16038561  0.01092625     0.78900
C69         C  0.53059485  0.26277927  0.08002033     0.77900
Zn70       Zn  0.53094283  0.19457684  0.31024548     1.49700
Zn71       Zn  0.46369070  0.11836603  0.30831928     1.49400
Zn72       Zn  0.51990082  0.13960307  0.35293316     1.49100
Zn73       Zn  0.46767256  0.17290657  0.35108351     1.49500
O74         O  0.49540566  0.15672253  0.33086891    -1.83300
O75         O  0.51738939  0.18520984  0.27326049    -0.74000
O76         O  0.45182257  0.07097842  0.32416036    -0.73800
O77         O  0.57282048  0.16143544  0.34551296    -0.73300
O78         O  0.48092723  0.12644088  0.27152742    -0.74000
O79         O  0.57992997  0.20025966  0.31498649    -0.73600
O80         O  0.49482812  0.08639923  0.35345678    -0.74200
O81         O  0.46829683  0.15952340  0.38861381    -0.73600
O82         O  0.41766636  0.11822265  0.30515723    -0.74300
O83         O  0.51445216  0.14999853  0.38900317    -0.73700
O84         O  0.41618540  0.15230491  0.33651429    -0.74200
O85         O  0.49220435  0.22724802  0.34958837    -0.74100
O86         O  0.53434889  0.24048665  0.31990687    -0.73900
C87         C  0.49872648  0.15668950  0.26042964     0.77900
C88         C  0.46619599  0.06290458  0.34252856     0.78400
C89         C  0.59279106  0.18599227  0.32976811     0.77400
C90         C  0.49071922  0.15376580  0.40077684     0.77700
C91         C  0.40180021  0.13187173  0.31707830     0.78900
C92         C  0.51821959  0.24995429  0.33575839     0.77900
Zn93       Zn  0.71221256  0.52256637  0.06536370     1.49700
Zn94       Zn  0.68228762  0.54877611  0.10940243     1.49400
Zn95       Zn  0.62640128  0.49087005  0.06874774     1.49100
Zn96       Zn  0.66881133  0.47101066  0.10982202     1.49500
O97         O  0.67178585  0.50811518  0.08807404    -1.83300
O98         O  0.74606354  0.57507039  0.06530232    -0.74000
O99         O  0.63937656  0.55418999  0.10976850    -0.73800
O100        O  0.63868196  0.50246413  0.03045665    -0.73300
O101        O  0.72305870  0.59464110  0.09481378    -0.74000
O102        O  0.69503479  0.51362141  0.02977903    -0.73600
O103        O  0.59808562  0.51370111  0.08345855    -0.74200
O104        O  0.62492833  0.42521866  0.10160829    -0.73600
O105        O  0.68779582  0.54060120  0.14690373    -0.74300
O106        O  0.59496516  0.43644168  0.07173444    -0.73700
O107        O  0.66532329  0.48205776  0.14624968    -0.74200
O108        O  0.71039708  0.46271312  0.10516317    -0.74100
O109        O  0.73881302  0.49675848  0.07148831    -0.73900
C110        C  0.74552348  0.60059944  0.07680224     0.77900
C111        C  0.60820861  0.53901204  0.09980058     0.78400
C112        C  0.66704307  0.50884833  0.01812007     0.77400
C113        C  0.59840307  0.41466729  0.08634464     0.77700
C114        C  0.67479015  0.51077439  0.15855027     0.78900
C115        C  0.73510753  0.47381096  0.08826200     0.77900
Zn116      Zn  0.70515840  0.52595351  0.35518852     1.49700
Zn117      Zn  0.65716145  0.46369653  0.31590037     1.49400
Zn118      Zn  0.61742843  0.47533263  0.36169759     1.49100
Zn119      Zn  0.64882699  0.53147477  0.31703024     1.49500
O120        O  0.65780992  0.49950171  0.33784390    -1.83300
O121        O  0.73467409  0.50042173  0.34970101    -0.74000
O122        O  0.61415781  0.41566874  0.32213002    -0.73800
O123        O  0.63721937  0.48321638  0.39667353    -0.73300
O124        O  0.70034888  0.45901021  0.32124141    -0.74000
O125        O  0.69485745  0.52585856  0.39395354    -0.73600
O126        O  0.58583291  0.42191820  0.35557315    -0.74200
O127        O  0.61209273  0.54117235  0.33394966    -0.73600
O128        O  0.65700495  0.47659728  0.27941284    -0.74300
O129        O  0.58742858  0.49900240  0.36373902    -0.73700
O130        O  0.63780465  0.51547740  0.28008130    -0.74200
O131        O  0.69411307  0.57810208  0.31331945    -0.74100
O132        O  0.73444722  0.57749918  0.33985267    -0.73900
C133        C  0.72864806  0.47434552  0.33495023     0.77900
C134        C  0.58859678  0.40250130  0.33839480     0.78400
C135        C  0.66661768  0.50585889  0.40724411     0.77400
C136        C  0.59005169  0.52630113  0.35251616     0.77700
C137        C  0.64744622  0.49625909  0.26781003     0.78900
C138        C  0.72557776  0.59302472  0.32276506     0.77900
Zn139      Zn  0.34099032  0.80925571  0.13995547     1.49700
Zn140      Zn  0.32888784  0.87496183  0.14151012     1.49400
Zn141      Zn  0.30178113  0.81850219  0.18651355     1.49100
Zn142      Zn  0.38587997  0.87338713  0.18051678     1.49500
O143        O  0.33999332  0.84424670  0.16199614    -1.83300
O144        O  0.33932094  0.82206028  0.10319025    -0.74000
O145        O  0.29272444  0.88415405  0.16035088    -0.73800
O146        O  0.27053168  0.76550765  0.17984822    -0.73300
O147        O  0.31756140  0.85893973  0.10424279    -0.74000
O148        O  0.29964466  0.75890540  0.14712684    -0.73600
O149        O  0.27319078  0.84275302  0.19088081    -0.74200
O150        O  0.37520238  0.87405503  0.21932484    -0.73600
O151        O  0.37365030  0.92155842  0.13686428    -0.74300
O152        O  0.32250185  0.82323530  0.22098992    -0.73700
O153        O  0.41460563  0.92403117  0.16421052    -0.74200
O154        O  0.41618278  0.84927005  0.17664514    -0.74100
O155        O  0.38664724  0.80899022  0.14595758    -0.73900
C156        C  0.32826696  0.84070615  0.09172079     0.77900
C157        C  0.27369714  0.86952359  0.18039248     0.78400
C158        C  0.27428157  0.74559284  0.16368479     0.77400
C159        C  0.34933279  0.84895875  0.23205184     0.77700
C160        C  0.40523212  0.93776688  0.14612845     0.78900
C161        C  0.41311602  0.82478396  0.16138111     0.77900
Zn162      Zn  0.28742237  0.80944959  0.43589467     1.49700
Zn163      Zn  0.30870000  0.86268845  0.39053265     1.49400
Zn164      Zn  0.37035747  0.86553835  0.42894028     1.49100
Zn165      Zn  0.32671706  0.80216885  0.38877630     1.49500
O166        O  0.32409680  0.83560419  0.41106817    -1.83300
O167        O  0.25775613  0.83219597  0.44198876    -0.74000
O168        O  0.35074874  0.91039891  0.38815045    -0.73800
O169        O  0.36017514  0.86582965  0.46777663    -0.73300
O170        O  0.26991319  0.86897731  0.40894551    -0.74000
O171        O  0.30955703  0.81337700  0.46963101    -0.73600
O172        O  0.39565873  0.91619933  0.41260474    -0.74200
O173        O  0.37056494  0.80033573  0.39625036    -0.73600
O174        O  0.30258714  0.84940044  0.35222454    -0.74300
O175        O  0.40216373  0.84261417  0.42506553    -0.73700
O176        O  0.32937816  0.81709845  0.35254498    -0.74200
O177        O  0.28584117  0.75235837  0.39383892    -0.74100
O178        O  0.25769954  0.75741689  0.42796820    -0.73900
C179        C  0.25440157  0.85625362  0.43056628     0.77900
C180        C  0.38272070  0.92894273  0.39628096     0.78400
C181        C  0.33542296  0.84002016  0.48074845     0.77400
C182        C  0.39770970  0.81657136  0.41091437     0.77700
C183        C  0.31791174  0.83482127  0.34039668     0.78900
C184        C  0.26152818  0.73848189  0.41100327     0.77900
Zn185      Zn  0.19571271  0.48472592  0.19218979     1.49700
Zn186      Zn  0.14185022  0.51472437  0.18456433     1.49400
Zn187      Zn  0.20500712  0.53218797  0.14542058     1.49100
Zn188      Zn  0.14181427  0.45446354  0.14696860     1.49500
O189        O  0.17038013  0.49674942  0.16751402    -1.83300
O190        O  0.19302799  0.50363173  0.22572118    -0.74000
O191        O  0.16730217  0.57024185  0.18001863    -0.73800
O192        O  0.25331401  0.53712753  0.14987498    -0.73300
O193        O  0.14079188  0.50232707  0.22342174    -0.74000
O194        O  0.24773446  0.50356833  0.18366911    -0.73600
O195        O  0.21005400  0.57930640  0.15200168    -0.74200
O196        O  0.15888386  0.46059163  0.10986574    -0.73600
O197        O  0.09114975  0.49083940  0.16672339    -0.74300
O198        O  0.18948157  0.51971453  0.10940671    -0.73700
O199        O  0.09474520  0.45072717  0.14216304    -0.74200
O200        O  0.13325456  0.40899474  0.16507805    -0.74100
O201        O  0.17062417  0.43209174  0.19814059    -0.73900
C202        C  0.16567717  0.50162502  0.23662421     0.77900
C203        C  0.19392089  0.59115798  0.16565009     0.78400
C204        C  0.26681769  0.52496542  0.16594056     0.77400
C205        C  0.17336371  0.49013813  0.09757893     0.77700
C206        C  0.07792255  0.46616238  0.14956675     0.78900
C207        C  0.14599518  0.40524375  0.18632067     0.77900
Zn208      Zn  0.14438741  0.51250877  0.39321208     1.49700
Zn209      Zn  0.19538316  0.52468119  0.43932732     1.49400
Zn210      Zn  0.11905986  0.45598617  0.43701869     1.49100
Zn211      Zn  0.18156038  0.46397616  0.39871090     1.49500
O212        O  0.16048654  0.48904526  0.41683582    -1.83300
O213        O  0.16854604  0.56520905  0.39796469    -0.74000
O214        O  0.18008949  0.51137452  0.47537175    -0.73800
O215        O  0.07277440  0.44343683  0.41756993    -0.73300
O216        O  0.20230555  0.57336829  0.43242652    -0.74000
O217        O  0.09145887  0.49148372  0.39296066    -0.73600
O218        O  0.12152057  0.47210468  0.47413255    -0.74200
O219        O  0.16274678  0.41404678  0.41482474    -0.73600
O220        O  0.24333483  0.52873971  0.43513850    -0.74300
O221        O  0.12209715  0.41228802  0.44217776    -0.73700
O222        O  0.23595290  0.49062648  0.40408425    -0.74200
O223        O  0.17194920  0.46379835  0.35973172    -0.74100
O224        O  0.15333771  0.50328487  0.35785005    -0.73900
C225        C  0.19091434  0.58556138  0.41477524     0.77900
C226        C  0.15038245  0.49159235  0.48676354     0.78400
C227        C  0.06663359  0.46134525  0.40081898     0.77400
C228        C  0.14008561  0.39893189  0.43308702     0.77700
C229        C  0.25615927  0.51489261  0.42002496     0.78900
C230        C  0.16212880  0.48269241  0.34691040     0.77900
Zn231      Zn  0.52363052  0.71070120  0.18961321     1.49700
Zn232      Zn  0.47633464  0.67478300  0.14265562     1.49400
Zn233      Zn  0.55476354  0.68897905  0.14267257     1.49100
Zn234      Zn  0.49632517  0.62851314  0.18082852     1.49500
O235        O  0.51267359  0.67505067  0.16383278    -1.83300
O236        O  0.50460040  0.74388943  0.18217029    -0.74000
O237        O  0.48726397  0.67314299  0.10592584    -0.73800
O238        O  0.60041842  0.72682152  0.16096201    -0.73300
O239        O  0.46995055  0.71713580  0.14833974    -0.74000
O240        O  0.57627926  0.73750236  0.19525247    -0.73600
O241        O  0.54646094  0.69563432  0.10457346    -0.74200
O242        O  0.52090887  0.60268470  0.16416909    -0.73600
O243        O  0.43038766  0.63103189  0.14975285    -0.74300
O244        O  0.56020901  0.64686458  0.13953798    -0.73700
O245        O  0.44214852  0.59700547  0.17536517    -0.74200
O246        O  0.50443911  0.63642975  0.22011386    -0.74100
O247        O  0.50457144  0.68767672  0.22323694    -0.73900
C248        C  0.48253761  0.74198068  0.16503927     0.77900
C249        C  0.51602998  0.68314804  0.09328450     0.78400
C250        C  0.60350022  0.74113148  0.18306427     0.77400
C251        C  0.54597691  0.61483065  0.14728431     0.77700
C252        C  0.42017484  0.60230347  0.16224356     0.78900
C253        C  0.50335811  0.66054447  0.23362411     0.77900
Zn254      Zn  0.46499708  0.66802949  0.39205922     1.49700
Zn255      Zn  0.51235394  0.70751929  0.43899634     1.49400
Zn256      Zn  0.48752146  0.62702261  0.43330337     1.49100
Zn257      Zn  0.54494474  0.68417390  0.39412018     1.49500
O258        O  0.50216549  0.67108143  0.41403597    -1.83300
O259        O  0.45837922  0.71088007  0.39682156    -0.74000
O260        O  0.49047722  0.68539405  0.47229679    -0.73800
O261        O  0.43298753  0.59620499  0.43081957    -0.73300
O262        O  0.49438546  0.74081494  0.42938451    -0.74000
O263        O  0.41858093  0.62328765  0.40038292    -0.73600
O264        O  0.50050494  0.63997931  0.47149048    -0.74200
O265        O  0.54972182  0.64124366  0.39101259    -0.73600
O266        O  0.56493598  0.73409892  0.44639534    -0.74300
O267        O  0.51035572  0.59932593  0.41727766    -0.73700
O268        O  0.58989295  0.72229003  0.41312997    -0.74200
O269        O  0.53805268  0.69193907  0.35619693    -0.74100
O270        O  0.47832384  0.66652957  0.35540763    -0.73900
C271        C  0.47180857  0.73745901  0.41219242     0.77900
C272        C  0.49604193  0.66289524  0.48395992     0.78400
C273        C  0.40984136  0.59808079  0.41652164     0.77400
C274        C  0.53461524  0.60964931  0.39986283     0.77700
C275        C  0.59247376  0.73741527  0.43483064     0.78900
C276        C  0.50830389  0.67838751  0.34383544     0.77900
Zn277      Zn  0.14332882  0.96294270  0.47812143     1.49700
Zn278      Zn  0.19987863  0.04584689  0.48464279     1.49400
Zn279      Zn  0.13671929  0.99987205  0.02564124     1.49100
Zn280      Zn  0.19998965  0.98302285  0.02257438     1.49500
O281        O  0.17080926  0.99751571  0.00318694    -1.83300
O282        O  0.14591761  0.98495099  0.44441728    -0.74000
O283        O  0.17601597  0.07681395  0.48899969    -0.73800
O284        O  0.08665794  0.95771339  0.02108563    -0.73300
O285        O  0.19927408  0.03469299  0.44579583    -0.74000
O286        O  0.09099757  0.93118673  0.48751191    -0.73600
O287        O  0.13450312  0.04412470  0.01905580    -0.74200
O288        O  0.18577124  0.97526384  0.06066338    -0.73600
O289        O  0.25138955  0.07244413  0.50087597    -0.74300
O290        O  0.15146870  0.00022404  0.06175760    -0.73700
O291        O  0.24903108  0.02510871  0.02532789    -0.74200
O292        O  0.20462874  0.94382374  0.00344936    -0.74100
O293        O  0.16680380  0.93400969  0.47133299    -0.73900
C294        C  0.17296733  0.01014478  0.43301077     0.77900
C295        C  0.15092493  0.07054132  0.00385057     0.78400
C296        C  0.07222711  0.93508628  0.50471657     0.77400
C297        C  0.16929087  0.98814898  0.07312962     0.77700
C298        C  0.26590671  0.05719677  0.01741941     0.78900
C299        C  0.19194907  0.93136519  0.48199176     0.77900
Zn300      Zn  0.20095042  0.98177990  0.27450135     1.49700
Zn301      Zn  0.13409508  0.99233108  0.27466135     1.49400
Zn302      Zn  0.19954902  0.03899366  0.23548618     1.49100
Zn303      Zn  0.14670208  0.95683964  0.22777149     1.49500
O304        O  0.17068981  0.99309516  0.25346136    -1.83300
O305        O  0.18479897  0.97216918  0.31203777    -0.74000
O306        O  0.13119863  0.03609461  0.26760947    -0.73800
O307        O  0.24952979  0.06772487  0.25268824    -0.73300
O308        O  0.14716209  0.99328800  0.31159987    -0.74000
O309        O  0.24749601  0.02657648  0.27930362    -0.73600
O310        O  0.17474161  0.06836903  0.23944482    -0.74200
O311        O  0.14896933  0.97902097  0.19423547    -0.73600
O312        O  0.08559618  0.94818553  0.26829710    -0.74300
O313        O  0.20153570  0.02962200  0.19660930    -0.73700
O314        O  0.09453746  0.92128423  0.23519830    -0.74200
O315        O  0.17477437  0.93275322  0.22176711    -0.74100
O316        O  0.21092262  0.94583252  0.25579274    -0.73900
C317        C  0.16641644  0.98351256  0.32375703     0.77900
C318        C  0.14842381  0.06373196  0.25353896     0.78400
C319        C  0.26331434  0.05831194  0.27071244     0.77400
C320        C  0.17583343  0.00509291  0.18340457     0.77700
C321        C  0.07393205  0.92256323  0.25216623     0.78900
C322        C  0.19944601  0.93090795  0.23384422     0.77900
Zn323      Zn  0.00415685  0.13907926  0.47947666     1.49700
Zn324      Zn  0.04822254  0.19804460  0.01854274     1.49400
Zn325      Zn  0.99378528  0.20552590  0.47901439     1.49100
Zn326      Zn  0.96186064  0.14587354  0.02320847     1.49500
O327        O  0.00300085  0.17477330  0.50085571    -1.83300
O328        O  0.04797068  0.13514342  0.48658061    -0.74000
O329        O  0.07770021  0.24845374  0.00102511    -0.73800
O330        O  0.98301683  0.18820416  0.44227734    -0.73300
O331        O  0.07793974  0.17273380  0.01546830    -0.74000
O332        O  0.00582973  0.15238132  0.44277025    -0.73600
O333        O  0.03970511  0.25054532  0.47463209    -0.74200
O334        O  0.92953261  0.16632398  0.02353143    -0.73600
O335        O  0.03632284  0.19827507  0.05737161    -0.74300
O336        O  0.95722918  0.21675758  0.49475441    -0.73700
O337        O  0.97932458  0.15390461  0.05881266    -0.74200
O338        O  0.93302487  0.09365714  0.01695084    -0.74100
O339        O  0.96027580  0.09070027  0.48522099    -0.73900
C340        C  0.07414582  0.15037636  0.50228535     0.77900
C341        C  0.07118774  0.26559347  0.48405651     0.78400
C342        C  0.99518581  0.17074539  0.43050027     0.77400
C343        C  0.93133514  0.19315524  0.01227916     0.77700
C344        C  0.00780735  0.17701120  0.07006088     0.78900
C345        C  0.93574950  0.07365096  0.00038679     0.77900
Zn346      Zn  0.01914015  0.21438123  0.27165108     1.49700
Zn347      Zn  0.95991667  0.15369437  0.23386983     1.49400
Zn348      Zn  0.04491655  0.18506976  0.22641704     1.49100
Zn349      Zn  0.00671294  0.13713502  0.27314153     1.49500
O350        O  0.00687705  0.17237682  0.25108169    -1.83300
O351        O  0.97463480  0.21664928  0.27699253    -0.74000
O352        O  0.97046574  0.16487634  0.19475491    -0.73800
O353        O  0.07325795  0.23804485  0.22140233    -0.73300
O354        O  0.93194262  0.17641637  0.25144760    -0.74000
O355        O  0.05556692  0.25998940  0.25312388    -0.73600
O356        O  0.02349955  0.16782357  0.19240541    -0.74200
O357        O  0.04878275  0.13047288  0.26725908    -0.73600
O358        O  0.93046363  0.09841794  0.23831397    -0.74300
O359        O  0.07716611  0.16466626  0.23369779    -0.73700
O360        O  0.96340437  0.09012970  0.26746299    -0.74200
O361        O  0.00685915  0.15042352  0.30934725    -0.74100
O362        O  0.03193484  0.20940993  0.30843765    -0.73900
C363        C  0.94238787  0.20069393  0.26886886     0.77900
C364        C  0.99655689  0.16674884  0.18151495     0.78400
C365        C  0.07366319  0.26430486  0.23259332     0.77400
C366        C  0.07404285  0.14222778  0.25077804     0.77700
C367        C  0.93589700  0.07787390  0.25303311     0.78900
C368        C  0.01957207  0.18014706  0.32088177     0.77900
Zn369      Zn  0.84149115  0.80337842  0.49084948     1.49700
Zn370      Zn  0.81017391  0.85468522  0.48144306     1.49400
Zn371      Zn  0.78094792  0.79503342  0.02853668     1.49100
Zn372      Zn  0.85923224  0.85982876  0.03024562     1.49500
O373        O  0.82260506  0.83131782  0.50743048    -1.83300
O374        O  0.83197564  0.80107209  0.45191429    -0.74000
O375        O  0.75701426  0.82903080  0.47608870    -0.73800
O376        O  0.77906812  0.74904252  0.03342223    -0.73300
O377        O  0.82895251  0.85064141  0.44779148    -0.74000
O378        O  0.81823398  0.75402417  0.50787024    -0.73600
O379        O  0.73512145  0.78623298  0.00984980    -0.74200
O380        O  0.84531747  0.84684921  0.06663833    -0.73600
O381        O  0.83019468  0.90675438  0.48830411    -0.74300
O382        O  0.78603871  0.81103085  0.06618270    -0.73700
O383        O  0.86701191  0.90859483  0.02317232    -0.74200
O384        O  0.90652117  0.86331516  0.02500371    -0.74100
O385        O  0.89635849  0.82796123  0.49595784    -0.73900
C386        C  0.83136087  0.82512365  0.43802620     0.77900
C387        C  0.72996453  0.80477566  0.48812080     0.78400
C388        C  0.79695575  0.73460594  0.02621055     0.77400
C389        C  0.81563444  0.82880566  0.07845422     0.77700
C390        C  0.85243130  0.92698765  0.50528249     0.78900
C391        C  0.91849171  0.84813119  0.01046738     0.77900
Zn392      Zn  0.78708254  0.79757975  0.27882168     1.49700
Zn393      Zn  0.84244429  0.79464496  0.23929947     1.49400
Zn394      Zn  0.81906005  0.85181354  0.23249519     1.49100
Zn395      Zn  0.86655139  0.86129766  0.27837837     1.49500
O396        O  0.82899108  0.82580520  0.25773305    -1.83300
O397        O  0.78206102  0.74987458  0.28424859    -0.74000
O398        O  0.82786229  0.79274904  0.20091855    -0.73800
O399        O  0.76661671  0.82696830  0.22657656    -0.73300
O400        O  0.81927031  0.74462768  0.25742667    -0.74000
O401        O  0.74191065  0.78990197  0.25964884    -0.73600
O402        O  0.83844479  0.84842463  0.19907728    -0.74200
O403        O  0.87427292  0.91114826  0.27293252    -0.73600
O404        O  0.89758296  0.81861528  0.24086676    -0.74300
O405        O  0.83873088  0.90408285  0.23994166    -0.73700
O406        O  0.91163676  0.86222005  0.26937278    -0.74200
O407        O  0.85531942  0.84801950  0.31517814    -0.74100
O408        O  0.79552654  0.81548816  0.31593874    -0.73900
C409        C  0.79605792  0.73221902  0.27569656     0.77900
C410        C  0.83215114  0.81978259  0.18796101     0.78400
C411        C  0.73909031  0.80258534  0.23805073     0.77400
C412        C  0.86148563  0.92400548  0.25677252     0.77700
C413        C  0.92069073  0.84503670  0.25425309     0.78900
C414        C  0.82589298  0.83144966  0.32755059     0.77900
C415        C  0.80329225  0.79817111  0.36893068    -0.11500
C416        C  0.82772677  0.82966816  0.35592835     0.05500
C417        C  0.85533045  0.85808208  0.37012378    -0.06800
C418        C  0.85704394  0.85519946  0.39681062    -0.07500
C419        C  0.83238119  0.82405522  0.40978537    -0.02100
C420        C  0.80556275  0.79514885  0.39570170     0.04700
N421        N  0.77924083  0.76351370  0.40852487     0.67300
H422        H  0.78239280  0.77583858  0.35828465     0.16200
H423        H  0.87739039  0.87780098  0.40759299     0.15900
N424        N  0.88094203  0.89068269  0.35792518     0.75000
O425        O  0.75374384  0.76339647  0.42058059    -0.38500
O426        O  0.78203280  0.73593783  0.40843142    -0.38400
O427        O  0.87737167  0.91772103  0.35976173    -0.39100
O428        O  0.91047081  0.89446237  0.35024790    -0.39200
C429        C  0.85113375  0.85136170  0.14646065    -0.11500
C430        C  0.82893575  0.81930709  0.15956509     0.05500
C431        C  0.80013423  0.79103144  0.14617357    -0.06800
C432        C  0.79442724  0.79523326  0.12000678    -0.07500
C433        C  0.81701844  0.82735603  0.10693342    -0.02100
C434        C  0.84513579  0.85595813  0.12066218     0.04700
N435        N  0.86713108  0.89026406  0.10890595     0.67300
H436        H  0.87250654  0.87377292  0.15676175     0.16200
H437        H  0.77301118  0.77290808  0.10968916     0.15900
N438        N  0.77573027  0.75855823  0.15907214     0.75000
O439        O  0.85268753  0.90519705  0.09698208    -0.38500
O440        O  0.90070692  0.90718262  0.11251744    -0.38400
O441        O  0.74353105  0.75057807  0.16262778    -0.39100
O442        O  0.78513102  0.73598226  0.16415524    -0.39200
C443        C  0.90654770  0.02110641  0.27758601    -0.11500
C444        C  0.91088837  0.03867573  0.25394001     0.05500
C445        C  0.89543369  0.01800347  0.23163885    -0.06800
C446        C  0.87739170  0.98051503  0.23319480    -0.07500
C447        C  0.87473979  0.96303609  0.25670068    -0.02100
C448        C  0.88856678  0.98381022  0.27921426     0.04700
N449        N  0.88478814  0.96747711  0.30387794     0.67300
H450        H  0.91789517  0.03658034  0.29499844     0.16200
H451        H  0.86739498  0.96512267  0.21561244     0.15900
N452        N  0.90114478  0.03458033  0.20694711     0.75000
O453        O  0.91216966  0.97619440  0.31764481    -0.38500
O454        O  0.85385282  0.94701645  0.31297606    -0.38400
O455        O  0.92774988  0.03978340  0.19347648    -0.39100
O456        O  0.87764284  0.04046254  0.19745552    -0.39200
C457        C  0.00508374  0.14748322  0.38970350    -0.11500
C458        C  0.99928815  0.17287400  0.40213656     0.05500
C459        C  0.00219069  0.20186126  0.38771440    -0.06800
C460        C  0.01136071  0.20518008  0.36156915    -0.07500
C461        C  0.01706106  0.17967449  0.34923763    -0.02100
C462        C  0.01416142  0.15068194  0.36366119     0.04700
N463        N  0.02083161  0.12447577  0.35227697     0.67300
H464        H  0.00342711  0.12524113  0.40042640     0.16200
H465        H  0.01251166  0.22704166  0.35063174     0.15900
N466        N  0.99600481  0.22817729  0.39924189     0.75000
O467        O  0.05092745  0.13384899  0.34209269    -0.38500
O468        O  0.99781252  0.09170705  0.35429970    -0.38400
O469        O  0.02217542  0.25884390  0.40401193    -0.39100
O470        O  0.96431003  0.22237088  0.40140163    -0.39200
C471        C  0.03185089  0.18214745  0.14084602    -0.11500
C472        C  0.99814802  0.16982972  0.15288098     0.05500
C473        C  0.96826036  0.16230015  0.13732053    -0.06800
C474        C  0.97267996  0.16679152  0.11049472    -0.07500
C475        C  0.00621513  0.17808884  0.09858269    -0.02100
C476        C  0.03605917  0.18631597  0.11414344     0.04700
N477        N  0.07038631  0.19690119  0.10309960     0.67300
H478        H  0.05550007  0.18864295  0.15220202     0.16200
H479        H  0.94929239  0.16015293  0.09876191     0.15900
N480        N  0.93307744  0.14857480  0.14809984     0.75000
O481        O  0.09224396  0.22949916  0.09886427    -0.38500
O482        O  0.08090169  0.17459696  0.10141591    -0.38400
O483        O  0.91445635  0.16250591  0.14209933    -0.39100
O484        O  0.91855255  0.11942010  0.16030739    -0.39200
C485        C  0.87894905  0.97969119  0.02576293    -0.11500
C486        C  0.86711827  0.96583145  0.50411181     0.05500
C487        C  0.87472389  0.98414335  0.48032197    -0.06800
C488        C  0.89568989  0.02140525  0.47991745    -0.07500
C489        C  0.91050026  0.03486365  0.00134454    -0.02100
C490        C  0.89761216  0.01692858  0.02507769     0.04700
N491        N  0.90549129  0.03604577  0.04884612     0.67300
H492        H  0.87051098  0.96622656  0.04421596     0.16200
H493        H  0.90295990  0.03520592  0.46155052     0.15900
N494        N  0.86399452  0.96535707  0.45635373     0.75000
O495        O  0.88369142  0.04465969  0.05780574    -0.38500
O496        O  0.93164347  0.04018695  0.06242801    -0.38400
O497        O  0.84213004  0.96852920  0.44196265    -0.39100
O498        O  0.88018603  0.94998747  0.44791135    -0.39200
C499        C  0.97873518  0.86652425  0.27598355    -0.11500
C500        C  0.95939604  0.85725290  0.25282212     0.05500
C501        C  0.97812411  0.86423298  0.22927019    -0.06800
C502        C  0.01598173  0.88282378  0.22938224    -0.07500
C503        C  0.03525567  0.89494773  0.25263316    -0.02100
C504        C  0.01627166  0.88475780  0.27611350     0.04700
N505        N  0.03488345  0.89250269  0.30020869     0.67300
H506        H  0.96445821  0.86016105  0.29418974     0.16200
H507        H  0.03024266  0.89046773  0.21117621     0.15900
N508        N  0.95943129  0.85607940  0.20517388     0.75000
O509        O  0.02477978  0.90377949  0.31897098    -0.38500
O510        O  0.05820402  0.88346093  0.30371839    -0.38400
O511        O  0.94219037  0.87138526  0.19892833    -0.39100
O512        O  0.96375939  0.83704553  0.18884549    -0.39200
C513        C  0.13401146  0.10541668  0.23028240    -0.11500
C514        C  0.13649184  0.09028260  0.25356413     0.05500
C515        C  0.12269588  0.09674984  0.27628086    -0.06800
C516        C  0.10391096  0.11517400  0.27497261    -0.07500
C517        C  0.09897772  0.12808129  0.25144823    -0.02100
C518        C  0.11522158  0.12408037  0.22899956     0.04700
N519        N  0.10995717  0.13564687  0.20441607     0.67300
H520        H  0.14431804  0.10047156  0.21267528     0.16200
H521        H  0.09255879  0.11891493  0.29252031     0.15900
N522        N  0.12732352  0.08445172  0.30082385     0.75000
O523        O  0.13595805  0.16171188  0.19323924    -0.38500
O524        O  0.08071657  0.11714208  0.19249353    -0.38400
O525        O  0.15855087  0.09456194  0.30918454    -0.39100
O526        O  0.10047706  0.06605237  0.31510990    -0.39200
C527        C  0.13954630  0.98686979  0.39226132    -0.11500
C528        C  0.17301601  0.00803489  0.40438912     0.05500
C529        C  0.20472632  0.02030457  0.38957980    -0.06800
C530        C  0.20208604  0.00955796  0.36367958    -0.07500
C531        C  0.16849792  0.98777849  0.35201660    -0.02100
C532        C  0.13700291  0.97641695  0.36655926     0.04700
N533        N  0.10229928  0.95257265  0.35583601     0.67300
H534        H  0.11487161  0.97684329  0.40322534     0.16200
H535        H  0.22636719  0.01969224  0.35222810     0.15900
N536        N  0.23958482  0.04365551  0.40027748     0.75000
O537        O  0.09723056  0.92502639  0.34403099    -0.38500
O538        O  0.07566472  0.95604597  0.36131178    -0.38400
O539        O  0.26492561  0.03756520  0.39635337    -0.39100
O540        O  0.24682394  0.07374971  0.40890296    -0.39200
C541        C  0.20477059  0.00673374  0.11393073    -0.11500
C542        C  0.17122518  0.99069308  0.10145231     0.05500
C543        C  0.14017708  0.98216528  0.11580362    -0.06800
C544        C  0.14285902  0.98910545  0.14216985    -0.07500
C545        C  0.17618106  0.00474230  0.15490647    -0.02100
C546        C  0.20750596  0.01411479  0.14048630     0.04700
N547        N  0.24198962  0.03019246  0.15258523     0.67300
H548        H  0.22899049  0.01442520  0.10291810     0.16200
H549        H  0.11842056  0.98140464  0.15291305     0.15900
N550        N  0.10547644  0.96543998  0.10391628     0.75000
O551        O  0.25514875  0.01114446  0.15914867    -0.38500
O552        O  0.26134815  0.06374932  0.15327250    -0.38400
O553        O  0.08834102  0.93207427  0.10064954    -0.39100
O554        O  0.09020823  0.98325707  0.09959159    -0.39200
C555        C  0.01609781  0.90123945  0.03031021    -0.11500
C556        C  0.03283853  0.90968368  0.50651484     0.05500
C557        C  0.01209073  0.88849484  0.48548827    -0.06800
C558        C  0.97443537  0.86798622  0.48761771    -0.07500
C559        C  0.95786325  0.86235294  0.01045048    -0.02100
C560        C  0.97875338  0.87934752  0.03257798     0.04700
N561        N  0.96237224  0.87477733  0.05743858     0.67300
H562        H  0.03163465  0.91478152  0.04731116     0.16200
H563        H  0.95877470  0.85377901  0.47083136     0.15900
N564        N  0.02837508  0.88961064  0.46122778     0.75000
O565        O  0.93992968  0.84390793  0.06543221    -0.38500
O566        O  0.97251648  0.90113717  0.07232940    -0.38400
O567        O  0.02625615  0.86161140  0.45222225    -0.39100
O568        O  0.04154985  0.92062717  0.94843335    -0.39200
C569        C  0.11313125  0.13110255  0.48033634    -0.11500
C570        C  0.10009435  0.13735604  0.50341938     0.05500
C571        C  0.11179085  0.12714199  0.02552027    -0.06800
C572        C  0.13047087  0.10833876  0.02559264    -0.07500
C573        C  0.13802417  0.09639783  0.00253781    -0.02100
C574        C  0.13250129  0.11295831  0.48025327     0.04700
N575        N  0.14341335  0.10550975  0.45618261     0.67300
H576        H  0.10703596  0.13916325  0.46213424     0.16200
H577        H  0.13750477  0.10139957  0.04389370     0.15900
N578        N  0.10215841  0.13605585  0.04956932     0.75000
O579        O  0.12029543  0.06000013  0.95072561    -0.38500
O580        O  0.17131461  0.12940471  0.44511866    -0.38400
O581        O  0.07014313  0.11832022  0.05751029    -0.39100
O582        O  0.11541213  0.15927440  0.56421158    -0.39200
C583        C  0.62877254  0.75084446  0.47470087    -0.11500
C584        C  0.62759159  0.75721242  0.44822100     0.05500
C585        C  0.65990020  0.78009502  0.43520840    -0.06800
C586        C  0.69254210  0.79568956  0.44887881    -0.07500
C587        C  0.69399231  0.78886928  0.47535202    -0.02100
C588        C  0.66143997  0.76578874  0.48818176     0.04700
N589        N  0.66209596  0.75579874  0.01643928     0.67300
H590        H  0.60417453  0.73276482  0.48482689     0.16200
H591        H  0.71708496  0.81315339  0.43851725     0.15900
N592        N  0.66002831  0.78838920  0.40839035     0.75000
O593        O  0.67092636  0.77942287  0.03355194    -0.38500
O594        O  0.64883831  0.72354957  0.02298259    -0.38400
O595        O  0.63718110  0.79581526  0.39968711    -0.39100
O596        O  0.68505191  0.79171644  0.39387756    -0.39200
C597        C  0.48006551  0.67081980  0.27397381    -0.11500
C598        C  0.50144737  0.65897110  0.26210127     0.05500
C599        C  0.52556381  0.65366830  0.27739032    -0.06800
C600        C  0.52877503  0.66185023  0.30387028    -0.07500
C601        C  0.50767258  0.67427479  0.31550274    -0.02100
C602        C  0.48288072  0.67834516  0.30028412     0.04700
N603        N  0.46229785  0.69274349  0.31090133     0.67300
H604        H  0.46204141  0.67583219  0.26244810     0.16200
H605        H  0.54708802  0.65748371  0.31555693     0.15900
N606        N  0.54764162  0.64112404  0.26632458     0.75000
O607        O  0.47671564  0.72608087  0.31343164    -0.38500
O608        O  0.42861395  0.67331807  0.31290466    -0.38400
O609        O  0.58079333  0.65672946  0.27149824    -0.39100
O610        O  0.53314868  0.61118057  0.25522226    -0.39200
C611        C  0.52098226  0.65498653  0.02471282    -0.11500
C612        C  0.49674117  0.66259111  0.01209945     0.05500
C613        C  0.47972300  0.67767755  0.02639623    -0.06800
C614        C  0.48801591  0.68583967  0.05243586    -0.07500
C615        C  0.51253653  0.67871120  0.06500407    -0.02100
C616        C  0.52876582  0.66268431  0.05101880     0.04700
N617        N  0.55115798  0.65182152  0.06363721     0.67300
H618        H  0.53448831  0.64369003  0.01402249     0.16200
H619        H  0.47444748  0.69708692  0.06312863     0.15900
N620        N  0.45347131  0.68436333  0.01480782     0.75000
O621        O  0.53687928  0.62194829  0.07483677    -0.38500
O622        O  0.58464671  0.66877456  0.05974763    -0.38400
O623        O  0.42431190  0.65753519  0.50982825    -0.39100
O624        O  0.45712980  0.71507965  0.01598055    -0.39200
C625        C  0.63864087  0.75341939  0.22323816    -0.11500
C626        C  0.63856920  0.75951680  0.19657205     0.05500
C627        C  0.67164091  0.78004132  0.18373258    -0.06800
C628        C  0.70376184  0.79411337  0.19789221    -0.07500
C629        C  0.70387547  0.78790871  0.22461634    -0.02100
C630        C  0.67072298  0.76677798  0.23715841     0.04700
N631        N  0.66904179  0.75773765  0.26380211     0.67300
H632        H  0.61349420  0.73681553  0.23326783     0.16200
H633        H  0.72894558  0.80988147  0.18773557     0.15900
N634        N  0.67318858  0.78738153  0.15662094     0.75000
O635        O  0.66209817  0.77459964  0.28042092    -0.38500
O636        O  0.66886790  0.72958383  0.27021545    -0.38400
O637        O  0.65264290  0.79712636  0.14686562    -0.39100
O638        O  0.69762128  0.78785552  0.14289660    -0.39200
C639        C  0.35260370  0.54926708  0.39850898    -0.11500
C640        C  0.37145775  0.57147263  0.41929449     0.05500
C641        C  0.35268667  0.57067676  0.44162459    -0.06800
C642        C  0.31517728  0.54971942  0.44218899    -0.07500
C643        C  0.29568702  0.52917243  0.42072395    -0.02100
C644        C  0.31500186  0.52735802  0.39926914     0.04700
N645        N  0.29699032  0.50457768  0.37779072     0.67300
H646        H  0.36715677  0.54934500  0.38145690     0.16200
H647        H  0.30114886  0.55120219  0.45904444     0.15900
N648        N  0.37105220  0.59375392  0.46284843     0.75000
O649        O  0.30289633  0.51737924  0.35530457    -0.38500
O650        O  0.28073448  0.47114268  0.38074009    -0.38400
O651        O  0.38058662  0.62639687  0.46155005    -0.39100
O652        O  0.37435476  0.58089094  0.48379102    -0.39200
C653        C  0.09855935  0.30072203  0.44453345    -0.11500
C654        C  0.09787016  0.29958569  0.47170981     0.05500
C655        C  0.11850191  0.33160179  0.48558240    -0.06800
C656        C  0.13628278  0.36408584  0.47196732    -0.07500
C657        C  0.13370399  0.36525923  0.44498149    -0.02100
C658        C  0.11666033  0.33316889  0.43113413     0.04700
N659        N  0.11473692  0.33337949  0.40363237     0.67300
H660        H  0.08346695  0.27623947  0.43363623     0.16200
H661        H  0.14967414  0.38889222  0.48266657     0.15900
N662        N  0.12597436  0.32655770  0.01008212     0.75000
O663        O  0.14288246  0.34409611  0.39035764    -0.38500
O664        O  0.08540843  0.32506517  0.39262558    -0.38400
O665        O  0.15753723  0.34295826  0.01903119    -0.39100
O666        O  0.09967645  0.31413748  0.02544257    -0.39200
C667        C  0.19263617  0.49683895  0.27782390    -0.11500
C668        C  0.16340975  0.49647734  0.26508608     0.05500
C669        C  0.13243989  0.48821211  0.27956076    -0.06800
C670        C  0.13167831  0.48144956  0.30605938    -0.07500
C671        C  0.16111640  0.48225850  0.31854963    -0.02100
C672        C  0.19157353  0.48953890  0.30412609     0.04700
N673        N  0.22269000  0.49227035  0.31625100     0.67300
H674        H  0.21681919  0.50283868  0.26737778     0.16200
H675        H  0.10824675  0.47643940  0.31713718     0.15900
N676        N  0.10172796  0.48683877  0.26784638     0.75000
O677        O  0.22338800  0.46435102  0.32196088    -0.38500
O678        O  0.25100770  0.52230399  0.31813375    -0.38400
O679        O  0.07394983  0.45705083  0.26353892    -0.39100
O680        O  0.10059171  0.51514774  0.26506464    -0.39200
C681        C  0.14259548  0.46049431  0.05663373    -0.11500
C682        C  0.17005631  0.49067687  0.06920111     0.05500
C683        C  0.19144980  0.52213284  0.05467548    -0.06800
C684        C  0.18559535  0.52234017  0.02828246    -0.07500
C685        C  0.15907405  0.49191433  0.01563586    -0.02100
C686        C  0.13696017  0.46081813  0.03005808     0.04700
N687        N  0.10974014  0.42896958  0.01794074     0.67300
H688        H  0.12534248  0.43643710  0.06745983     0.16200
H689        H  0.20268682  0.54643734  0.01741766     0.15900
N690        N  0.21956961  0.55411407  0.06615605     0.75000
O691        O  0.11855609  0.41131332  0.00345286    -0.38500
O692        O  0.07724297  0.41601749  0.02435945    -0.38400
O693        O  0.24679851  0.55448229  0.07555992    -0.39100
O694        O  0.21996161  0.58317410  0.06312231    -0.39200
C695        C  0.36404683  0.55655940  0.18391175    -0.11500
C696        C  0.38151378  0.57545754  0.16151197     0.05500
C697        C  0.36085671  0.57275843  0.13957411    -0.06800
C698        C  0.32346854  0.55421123  0.14116509    -0.07500
C699        C  0.30576328  0.53765069  0.16413692    -0.02100
C700        C  0.32635236  0.53754151  0.18538740     0.04700
N701        N  0.30968679  0.52069996  0.20916678     0.67300
H702        H  0.37962409  0.55839870  0.20085544     0.16200
H703        H  0.30820481  0.55369611  0.12438539     0.15900
N704        N  0.37751755  0.58980882  0.11575009     0.75000
O705        O  0.29775492  0.48773159  0.21212151    -0.38500
O706        O  0.31130865  0.53944636  0.22825381    -0.38400
O707        O  0.39938747  0.58273925  0.10486178    -0.39100
O708        O  0.36907094  0.61062008  0.10491532    -0.39200
C709        C  0.11471524  0.33884916  0.18267417    -0.11500
C710        C  0.13064973  0.36933944  0.19831071     0.05500
C711        C  0.12896447  0.36491971  0.22543966    -0.06800
C712        C  0.11054170  0.33062091  0.23622943    -0.07500
C713        C  0.09415532  0.30018070  0.22058515    -0.02100
C714        C  0.09655595  0.30449994  0.19344344     0.04700
N715        N  0.07864855  0.27447386  0.17650641     0.67300
H716        H  0.11538148  0.34169231  0.16189925     0.16200
H717        H  0.10894625  0.32780562  0.25701632     0.15900
N718        N  0.14427928  0.39498661  0.24239446     0.75000
O719        O  0.04479738  0.25543477  0.17697589    -0.38500
O720        O  0.09596905  0.27016624  0.15864548    -0.38400
O721        O  0.12430090  0.40474544  0.25301751    -0.39100
O722        O  0.17646972  0.40822067  0.24972464    -0.39200
C723        C  0.22005139  0.88867808  0.42940875    -0.11500
C724        C  0.23451532  0.87158368  0.44386132     0.05500
C725        C  0.23355986  0.87316727  0.47117193    -0.06800
C726        C  0.21957627  0.89255952  0.48319083    -0.07500
C727        C  0.20565404  0.91011607  0.46871465    -0.02100
C728        C  0.20582092  0.90787713  0.44141897     0.04700
N729        N  0.19426348  0.92720749  0.42549420     0.67300
H730        H  0.22109944  0.88836590  0.40855295     0.16200
H731        H  0.21398137  0.88695249  0.00371817     0.15900
N732        N  0.24847326  0.85691377  0.48708918     0.75000
O733        O  0.21035459  0.96082226  0.42675913    -0.38500
O734        O  0.17204507  0.91142118  0.40752583    -0.38400
O735        O  0.27755113  0.87622612  0.49897420    -0.39100
O736        O  0.22980970  0.82418950  0.49260731    -0.39200
C737        C  0.22913938  0.67965009  0.38929365    -0.11500
C738        C  0.23919744  0.69933325  0.41226362     0.05500
C739        C  0.23087430  0.68114508  0.43615152    -0.06800
C740        C  0.21354727  0.64386193  0.43647842    -0.07500
C741        C  0.20485359  0.62429172  0.41350646    -0.02100
C742        C  0.21204432  0.64240289  0.38971001     0.04700
N743        N  0.20472570  0.62362064  0.36581945     0.67300
H744        H  0.23569831  0.69333678  0.37088284     0.16200
H745        H  0.20826392  0.63017328  0.45483922     0.15900
N746        N  0.24240924  0.70002283  0.46013490     0.75000
O747        O  0.17805195  0.61845004  0.35242470    -0.38500
O748        O  0.22724279  0.61610293  0.35666346    -0.38400
O749        O  0.22048763  0.69136740  0.47858986    -0.39100
O750        O  0.27545676  0.72112275  0.46423349    -0.39200
C751        C  0.42748851  0.78851083  0.38821542    -0.11500
C752        C  0.42328446  0.80318171  0.41113402     0.05500
C753        C  0.43968054  0.80029337  0.43384276    -0.06800
C754        C  0.45783959  0.78091270  0.43348081    -0.07500
C755        C  0.45941667  0.76380371  0.41086903    -0.02100
C756        C  0.44534486  0.76915521  0.38787925     0.04700
N757        N  0.44929528  0.75538140  0.36391283     0.67300
H758        H  0.41591950  0.79128519  0.37040723     0.16200
H759        H  0.46842451  0.77708832  0.45139460     0.15900
N760        N  0.43516372  0.81373282  0.45782813     0.75000
O761        O  0.42187562  0.73190257  0.35212831    -0.38500
O762        O  0.47938468  0.77070316  0.35270618    -0.38400
O763        O  0.40508804  0.79808882  0.46908298    -0.39100
O764        O  0.46219004  0.83818707  0.46933916    -0.39200
C765        C  0.32828167  0.81269312  0.29925993    -0.11500
C766        C  0.32469639  0.83915481  0.31222318     0.05500
C767        C  0.33361057  0.87110343  0.29900464    -0.06800
C768        C  0.34538670  0.87563141  0.27327547    -0.07500
C769        C  0.34820685  0.84873332  0.26038996    -0.02100
C770        C  0.34016437  0.81720379  0.27372158     0.04700
N771        N  0.34393032  0.78953941  0.26147657     0.67300
H772        H  0.32252086  0.78845649  0.30929920     0.16200
H773        H  0.35045200  0.89942620  0.26290488     0.15900
N774        N  0.33142535  0.89935435  0.31143348     0.75000
O775        O  0.37039282  0.79746493  0.24690359    -0.38500
O776        O  0.32251132  0.75716645  0.26682800    -0.38400
O777        O  0.35938605  0.92956036  0.31391172    -0.39100
O778        O  0.30104629  0.89603315  0.31576308    -0.39200
C779        C  0.34146211  0.87512097  0.05062719    -0.11500
C780        C  0.33009712  0.84241002  0.06325216     0.05500
C781        C  0.32558192  0.81293562  0.04879966    -0.06800
C782        C  0.33234620  0.81651203  0.02236791    -0.07500
C783        C  0.34329345  0.84892154  0.00957995    -0.02100
C784        C  0.34855085  0.87878028  0.02398460     0.04700
N785        N  0.36022394  0.91255788  0.01187781     0.67300
H786        H  0.34609243  0.89827474  0.06164727     0.16200
H787        H  0.32756431  0.79318430  0.01148667     0.15900
N788        N  0.31266886  0.77870976  0.06051504     0.75000
O789        O  0.34234171  0.92807388  0.01482621    -0.38500
O790        O  0.39126910  0.92954502  0.00213337    -0.38400
O791        O  0.28171606  0.76252392  0.07047252    -0.39100
O792        O  0.33074748  0.76322665  0.05883701    -0.39200
C793        C  0.23960817  0.87274442  0.21825471    -0.11500
C794        C  0.25335131  0.88471061  0.19321028     0.05500
C795        C  0.24882777  0.91193387  0.18201049    -0.06800
C796        C  0.23005542  0.92542540  0.19546649    -0.07500
C797        C  0.21687853  0.91365715  0.22045151    -0.02100
C798        C  0.22166109  0.88702740  0.23192733     0.04700
N799        N  0.20739097  0.87338015  0.25697752     0.67300
H800        H  0.24285626  0.85212004  0.22747369     0.16200
H801        H  0.22691979  0.94638427  0.18666798     0.15900
N802        N  0.26405448  0.92717135  0.15750554     0.75000
O803        O  0.17433774  0.86079446  0.26142237    -0.38500
O804        O  0.22695954  0.87066383  0.27388798    -0.38400
O805        O  0.24360059  0.92398977  0.13901171    -0.39100
O806        O  0.29713283  0.95003573  0.15602326    -0.39200
C807        C  0.24384288  0.68672113  0.14148993    -0.11500
C808        C  0.24939057  0.70616915  0.16424124     0.05500
C809        C  0.23253672  0.68731683  0.18713383    -0.06800
C810        C  0.21177019  0.64974395  0.18696738    -0.07500
C811        C  0.20785976  0.63031885  0.16438263    -0.02100
C812        C  0.22317878  0.64935324  0.14121246     0.04700
N813        N  0.21844338  0.63108295  0.11721472     0.67300
H814        H  0.25584470  0.70071278  0.12365675     0.16200
H815        H  0.20092335  0.63568179  0.20496372     0.15900
N816        N  0.23918554  0.70557744  0.21118925     0.75000
O817        O  0.18749978  0.60703006  0.11021694    -0.38500
O818        O  0.24461468  0.64110572  0.10194564    -0.38400
O819        O  0.21479169  0.70923812  0.22162444    -0.39100
O820        O  0.26758139  0.71382039  0.22354840    -0.39200
C821        C  0.44817990  0.80353161  0.18608179    -0.11500
C822        C  0.43918713  0.81210332  0.16220167     0.05500
C823        C  0.44869362  0.80121662  0.13935434    -0.06800
C824        C  0.46366089  0.77913089  0.14080982    -0.07500
C825        C  0.47027270  0.76831106  0.16466980    -0.02100
C826        C  0.46319408  0.78136448  0.18758269     0.04700
N827        N  0.46744248  0.76943985  0.21241519     0.67300
H828        H  0.44031938  0.81118061  0.20370096     0.16200
H829        H  0.46994403  0.77011408  0.12313859     0.15900
N830        N  0.44288866  0.81215614  0.11458340     0.75000
O831        O  0.48293224  0.79174070  0.23029834    -0.38500
O832        O  0.45103159  0.73651343  0.21760550    -0.38400
O833        O  0.45349440  0.84463498  0.11031873    -0.39100
O834        O  0.42979828  0.78997887  0.09635009    -0.39200
C835        C  0.55657052  0.53551525  0.38845007    -0.11500
C836        C  0.56957498  0.54293416  0.36288375     0.05500
C837        C  0.56763446  0.57012256  0.34928209    -0.06800
C838        C  0.55587813  0.59089223  0.36189087    -0.07500
C839        C  0.54491534  0.58494026  0.38784194    -0.02100
C840        C  0.54435890  0.55622051  0.40096861     0.04700
N841        N  0.53419722  0.54945754  0.42749160     0.67300
H842        H  0.55795714  0.51496877  0.39941040     0.16200
H843        H  0.55509596  0.61189139  0.35108125     0.15900
N844        N  0.57747397  0.57707561  0.32264691     0.75000
O845        O  0.50676556  0.52049886  0.43402533    -0.38500
O846        O  0.55503593  0.57027328  0.44460412    -0.38400
O847        O  0.56136604  0.55269490  0.30615941    -0.39100
O848        O  0.59944094  0.60840077  0.31522810    -0.39200
C849        C  0.76304413  0.63326424  0.28724977    -0.11500
C850        C  0.75132758  0.62927455  0.31300700     0.05500
C851        C  0.75842949  0.65990824  0.32702635    -0.06800
C852        C  0.77528027  0.69338289  0.31477996    -0.07500
C853        C  0.78471850  0.69716843  0.28844758    -0.02100
C854        C  0.77987295  0.66684694  0.27498270     0.04700
N855        N  0.78909807  0.66910431  0.24835213     0.67300
H856        H  0.75722080  0.60980975  0.27613307     0.16200
H857        H  0.77920064  0.71640449  0.32564842     0.15900
N858        N  0.74619825  0.65717317  0.35304585     0.75000
O859        O  0.81627724  0.66725810  0.24166924    -0.38500
O860        O  0.76788135  0.66873201  0.23140659    -0.38400
O861        O  0.76781452  0.67669570  0.37031314    -0.39100
O862        O  0.71308347  0.63872095  0.35816650    -0.39200
C863        C  0.69491604  0.52157822  0.47760367    -0.11500
C864        C  0.66130861  0.50683926  0.49016269     0.05500
C865        C  0.62994559  0.49376013  0.47508959    -0.06800
C866        C  0.63276713  0.49501869  0.44820568    -0.07500
C867        C  0.66627068  0.50862879  0.43570072    -0.02100
C868        C  0.69766708  0.52275839  0.45074994     0.04700
N869        N  0.73245803  0.53763387  0.43922335     0.67300
H870        H  0.71958808  0.53251923  0.48867245     0.16200
H871        H  0.60820458  0.48436884  0.43702915     0.15900
N872        N  0.59498412  0.47788931  0.48656135     0.75000
O873        O  0.74809223  0.56936475  0.43106092    -0.38500
O874        O  0.74994883  0.52159060  0.44133971    -0.38400
O875        O  0.61984081  0.54579157  0.99430766    -0.39100
O876        O  0.58270722  0.44883319  0.49871493    -0.39200
C877        C  0.66194729  0.53179343  0.22763599    -0.11500
C878        C  0.65068487  0.49878441  0.23957018     0.05500
C879        C  0.64786754  0.47026441  0.22482342    -0.06800
C880        C  0.65699797  0.47528047  0.19881739    -0.07500
C881        C  0.66856306  0.50832210  0.18671731    -0.02100
C882        C  0.67079452  0.53679876  0.20143127     0.04700
N883        N  0.68168759  0.57082746  0.19016549     0.67300
H884        H  0.66485504  0.55417330  0.23884204     0.16200
H885        H  0.65434191  0.45272941  0.18798669     0.15900
N886        N  0.63448303  0.43559511  0.23576313     0.75000
O887        O  0.65866189  0.57629496  0.17931064    -0.38500
O888        O  0.71291668  0.59669539  0.19431565    -0.38400
O889        O  0.60097411  0.41474919  0.23735142    -0.39100
O890        O  0.65548379  0.42365161  0.23932572    -0.39200
C891        C  0.58265919  0.60730749  0.11366667    -0.11500
C892        C  0.55873278  0.59224694  0.13461099     0.05500
C893        C  0.54704124  0.55643858  0.14139645    -0.06800
C894        C  0.56047806  0.53736469  0.12792935    -0.07500
C895        C  0.58491863  0.55320740  0.10746277    -0.02100
C896        C  0.59512982  0.58811550  0.09991417     0.04700
N897        N  0.61948092  0.60492102  0.07882778     0.67300
H898        H  0.59188379  0.63445005  0.10755868     0.16200
H899        H  0.55357829  0.51094913  0.13451999     0.15900
N900        N  0.52328530  0.53973735  0.16265721     0.75000
O901        O  0.61319768  0.58946895  0.05726485    -0.38500
O902        O  0.64605626  0.63609341  0.08121888    -0.38400
O903        O  0.49201202  0.51379439  0.15878579    -0.39100
O904        O  0.53500181  0.54785939  0.18540004    -0.39200
C905        C  0.78112954  0.69860693  0.06599829    -0.11500
C906        C  0.78939052  0.70149645  0.03957647     0.05500
C907        C  0.79014407  0.67313899  0.02708429    -0.06800
C908        C  0.77979075  0.64145547  0.04070017    -0.07500
C909        C  0.76807552  0.63732409  0.06653144    -0.02100
C910        C  0.77114601  0.66717457  0.07969611     0.04700
N911        N  0.76391947  0.66588208  0.10678811     0.67300
H912        H  0.78243473  0.72107905  0.07612256     0.16200
H913        H  0.77777750  0.61893984  0.03021239     0.15900
N914        N  0.79806408  0.67479635  0.00014853     0.75000
O915        O  0.77796899  0.65394889  0.12227372    -0.38500
O916        O  0.74657028  0.67989160  0.11555237    -0.38400
O917        O  0.82127831  0.66737380  0.99235382    -0.39100
O918        O  0.77933411  0.68004699  0.98393770    -0.39200
C919        C  0.55117093  0.34408021  0.36074084    -0.11500
C920        C  0.56310388  0.36351698  0.33761070     0.05500
C921        C  0.55573279  0.34482241  0.31407503    -0.06800
C922        C  0.53993766  0.30774125  0.31424339    -0.07500
C923        C  0.53050497  0.28841346  0.33735534    -0.02100
C924        C  0.53530610  0.30664327  0.36092578     0.04700
N925        N  0.52745279  0.28826491  0.38518026     0.67300
H926        H  0.55707761  0.35822308  0.37891479     0.16200
H927        H  0.53533574  0.29383360  0.29604406     0.15900
N928        N  0.56469732  0.36320144  0.28983351     0.75000
O929        O  0.53928159  0.26751979  0.39001550    -0.38500
O930        O  0.51325625  0.29660758  0.40308358    -0.38400
O931        O  0.57915794  0.35454865  0.27231017    -0.39100
O932        O  0.55530314  0.38588748  0.28509653    -0.39200
C933        C  0.40884204  0.01018355  0.35460942    -0.11500
C934        C  0.44638705  0.02675883  0.35408629     0.05500
C935        C  0.46340474  0.01240042  0.36928552    -0.06800
C936        C  0.44247148  0.98151719  0.38413763    -0.07500
C937        C  0.40478629  0.96497037  0.38458231    -0.02100
C938        C  0.38806199  0.98063818  0.37030596     0.04700
N939        N  0.35024900  0.96817294  0.37250038     0.67300
H940        H  0.39553644  0.02206297  0.34432391     0.16200
H941        H  0.45571674  0.96982636  0.39470697     0.15900
N942        N  0.50176863  0.02851135  0.36955826     0.75000
O943        O  0.33603803  0.96363739  0.39448423    -0.38500
O944        O  0.33238193  0.96703397  0.35285431    -0.38400
O945        O  0.51839476  0.03484256  0.39070193    -0.39100
O946        O  0.51890364  0.03450686  0.34868346    -0.39200
C947        C  0.30147289  0.08077445  0.30988008    -0.11500
C948        C  0.29785206  0.08404134  0.28318023     0.05500
C949        C  0.32796068  0.10931913  0.26914217    -0.06800
C950        C  0.36162902  0.12798187  0.28136992    -0.07500
C951        C  0.36566874  0.12234880  0.30758937    -0.02100
C952        C  0.33490885  0.09997968  0.32217348     0.04700
N953        N  0.33780236  0.09388303  0.34890457     0.67300
H954        H  0.27836103  0.06206712  0.32114218     0.16200
H955        H  0.38520197  0.14512356  0.26992562     0.15900
N956        N  0.32555338  0.11368263  0.24206012     0.75000
O957        O  0.33974904  0.11610620  0.36542197    -0.38500
O958        O  0.33443150  0.06459751  0.35619997    -0.38400
O959        O  0.32586226  0.14109713  0.23358080    -0.39100
O960        O  0.32419878  0.09068185  0.22652700    -0.39200
C961        C  0.47706153  0.16615154  0.47133699    -0.11500
C962        C  0.49787910  0.15357615  0.48336645     0.05500
C963        C  0.51345012  0.13809249  0.46818839    -0.06800
C964        C  0.50946101  0.13714028  0.44139412    -0.07500
C965        C  0.49013317  0.15142365  0.42925194    -0.02100
C966        C  0.47279067  0.16492497  0.44464961     0.04700
N967        N  0.45145528  0.17827949  0.43360140     0.67300
H968        H  0.46381486  0.17708236  0.48275052     0.16200
H969        H  0.52255415  0.12604002  0.43000427     0.15900
N970        N  0.53486269  0.12494394  0.47944251     0.75000
O971        O  0.41906096  0.15685847  0.42778764    -0.38500
O972        O  0.46303970  0.21140942  0.43351922    -0.38400
O973        O  0.52485889  0.09221618  0.47782496    -0.39100
O974        O  0.56577329  0.14657126  0.48807012    -0.39200
C975        C  0.46628728  0.14095985  0.19099294    -0.11500
C976        C  0.49523761  0.17002504  0.17857504     0.05500
C977        C  0.52531964  0.19429533  0.19335540    -0.06800
C978        C  0.52610199  0.18880808  0.21977891    -0.07500
C979        C  0.49731480  0.15965887  0.23216279    -0.02100
C980        C  0.46698856  0.13566035  0.21754067     0.04700
N981        N  0.43621312  0.10650182  0.22940156     0.67300
H982        H  0.44307766  0.12186477  0.18001498     0.16200
H983        H  0.54945785  0.20774431  0.23071830     0.15900
N984        N  0.55528484  0.22481876  0.18193847     0.75000
O985        O  0.41478962  0.11227417  0.24223232    -0.38500
O986        O  0.42761589  0.07485036  0.22391641    -0.38400
O987        O  0.55292421  0.25187048  0.17632769    -0.39100
O988        O  0.58530026  0.22639936  0.18035446    -0.39200
C989        C  0.55155570  0.31798752  0.10536217    -0.11500
C990        C  0.54243146  0.30122831  0.08124010     0.05500
C991        C  0.54597747  0.32175419  0.05905971    -0.06800
C992        C  0.56086159  0.35887418  0.06133003    -0.07500
C993        C  0.57263562  0.37583347  0.08530144    -0.02100
C994        C  0.56595204  0.35481975  0.10768591     0.04700
N995        N  0.57424815  0.37070961  0.13285743     0.67300
H996        H  0.54757960  0.30228476  0.12260190     0.16200
H997        H  0.56616137  0.37476785  0.04402252     0.15900
N998        N  0.53786268  0.30601511  0.03392336     0.75000
O999        O  0.56525916  0.39330446  0.13893615    -0.38500
O1000       O  0.58818688  0.36035176  0.14966804    -0.38400
O1001       O  0.51677720  0.31013454  0.01932380    -0.39100
O1002       O  0.55535122  0.29221554  0.02505190    -0.39200
C1003       C  0.43199538  0.97521293  0.10725869    -0.11500
C1004       C  0.43077404  0.97274007  0.13434905     0.05500
C1005       C  0.45031569  0.00415535  0.14896720    -0.06800
C1006       C  0.46811842  0.03738189  0.13630966    -0.07500
C1007       C  0.46710177  0.03989914  0.10927435    -0.02100
C1008       C  0.45032796  0.00833619  0.09468244     0.04700
N1009       N  0.44883869  0.00963957  0.06722452     0.67300
H1010       H  0.41735324  0.95122729  0.09575226     0.16200
H1011       H  0.48068918  0.06156492  0.14777010     0.15900
N1012       N  0.44951447  0.00317037  0.17655119     0.75000
O1013       O  0.47556490  0.01473616  0.05395738    -0.38500
O1014       O  0.41958428  0.00157153  0.05618229    -0.38400
O1015       O  0.47853913  0.01874863  0.18913238    -0.39100
O1016       O  0.41994664  0.99075099  0.18832175    -0.39200
C1017       C  0.30634041  0.07593257  0.05525815    -0.11500
C1018       C  0.30189200  0.08082314  0.02899653     0.05500
C1019       C  0.33151630  0.10726400  0.01509049    -0.06800
C1020       C  0.36493787  0.12748162  0.02761564    -0.07500
C1021       C  0.36974019  0.12143822  0.05370810    -0.02100
C1022       C  0.33949434  0.09602533  0.06776746     0.04700
N1023       N  0.34172353  0.09056271  0.09481058     0.67300
H1024       H  0.28351100  0.05643658  0.06637713     0.16200
H1025       H  0.38785600  0.14643796  0.01633563     0.15900
N1026       N  0.32896882  0.11200440  0.98797188     0.75000
O1027       O  0.35397590  0.11673279  0.11009071    -0.38500
O1028       O  0.32732262  0.05930626  0.10382645    -0.38400
O1029       O  0.34286125  0.14302300  0.97860070    -0.39100
O1030       O  0.31695530  0.08553589  0.97297846    -0.39200
C1031       C  0.92271636  0.22011942  0.30770192    -0.11500
C1032       C  0.91750100  0.21092594  0.28132924     0.05500
C1033       C  0.89087927  0.21428521  0.26780904    -0.06800
C1034       C  0.87186774  0.22852207  0.28047931    -0.07500
C1035       C  0.87865810  0.23956738  0.30644239    -0.02100
C1036       C  0.90363145  0.23413587  0.32038256     0.04700
N1037       N  0.91173603  0.24493649  0.34684958     0.67300
H1038       H  0.94255434  0.21707070  0.31852396     0.16200
H1039       H  0.85357487  0.23360237  0.26936896     0.15900
N1040       N  0.88507654  0.20660574  0.24079932     0.75000
O1041       O  0.88666340  0.23724174  0.36271711    -0.38500
O1042       O  0.94365516  0.25896551  0.35499737    -0.38400
O1043       O  0.85344227  0.18925276  0.23206780    -0.39100
O1044       O  0.91113038  0.22125794  0.22526894    -0.39200
C1045       C  0.79669696  0.44453269  0.35059835    -0.18700
C1046       C  0.79482563  0.42563862  0.32799381     0.05500
C1047       C  0.77493255  0.42725262  0.30685195    -0.06800
C1048       C  0.75452140  0.44400482  0.30969724    -0.07500
C1049       C  0.75420760  0.46066968  0.33284748    -0.02100
C1050       C  0.77672741  0.46203074  0.35316086     0.04700
N1051       N  0.77781124  0.47887708  0.37707238     0.67300
H1052       H  0.81203008  0.44397053  0.36696858     0.16200
H1053       H  0.73879837  0.44417489  0.29344197     0.15900
N1054       N  0.77579500  0.41274823  0.28218564     0.75000
O1055       O  0.75112139  0.46468232  0.39206865    -0.38500
O1056       O  0.80677846  0.50562979  0.38451420    -0.38400
O1057       O  0.74780909  0.39748453  0.26844290    -0.39100
O1058       O  0.80550394  0.41936475  0.27267256    -0.39200
C1059       C  0.68962064  0.21809104  0.34945310    -0.11500
C1060       C  0.70778298  0.23458589  0.32656311     0.05500
C1061       C  0.68752545  0.23055868  0.30405536    -0.06800
C1062       C  0.65006090  0.21354740  0.30545624    -0.07500
C1063       C  0.63190232  0.19922809  0.32870518    -0.02100
C1064       C  0.65190839  0.20042028  0.35068701     0.04700
N1065       N  0.63467970  0.18690612  0.37495094     0.67300
H1066       H  0.70474015  0.22110060  0.36690295     0.16200
H1067       H  0.63503746  0.21185456  0.28822053     0.15900
N1068       N  0.70472347  0.24418437  0.27969524     0.75000
O1069       O  0.62819714  0.15659847  0.38255062    -0.38500
O1070       O  0.62946283  0.20673005  0.38994036    -0.38400
O1071       O  0.72562498  0.23448912  0.27059178    -0.39100
O1072       O  0.69718856  0.26395921  0.26644715    -0.39200
C1073       C  0.01294708  0.40887601  0.38239759    -0.11500
C1074       C  0.03126114  0.44556627  0.38778274     0.05500
C1075       C  0.01844495  0.46697995  0.37684718    -0.06800
C1076       C  0.98739566  0.45131506  0.36148779    -0.07500
C1077       C  0.96964763  0.41478020  0.35579785    -0.02100
C1078       C  0.98280200  0.39354857  0.36625750     0.04700
N1079       N  0.96492883  0.35601794  0.36142293     0.67300
H1080       H  0.02285468  0.39213536  0.38996499     0.16200
H1081       H  0.97705556  0.46773272  0.35400825     0.15900
N1082       N  0.03650004  0.50460269  0.38128716     0.75000
O1083       O  0.97395224  0.34433079  0.34231736    -0.38500
O1084       O  0.94261465  0.33443258  0.37753455    -0.38400
O1085       O  0.05559149  0.52586192  0.36372068    -0.39100
O1086       O  0.02915338  0.51654795  0.40108166    -0.39200
C1087       C  0.85536583  0.32175925  0.46903978    -0.11500
C1088       C  0.84963454  0.34819009  0.47975129     0.05500
C1089       C  0.83721288  0.36599574  0.46400451    -0.06800
C1090       C  0.83183990  0.35812738  0.43773704    -0.07500
C1091       C  0.83807653  0.33207791  0.42664116    -0.02100
C1092       C  0.84921768  0.31321907  0.44273806     0.04700
N1093       N  0.85464709  0.28564345  0.43272792     0.67300
H1094       H  0.86355377  0.30688276  0.48133356     0.16200
H1095       H  0.82310001  0.37292814  0.42587021     0.15900
N1096       N  0.83061584  0.39264587  0.47440060     0.75000
O1097       O  0.88615103  0.29152178  0.42913636    -0.38500
O1098       O  0.82837181  0.25419629  0.43105925    -0.38400
O1099       O  0.84325357  0.40806518  0.98760762    -0.39100
O1100       O  0.79878610  0.38528096  0.47880416    -0.39200
C1101       C  0.86438160  0.32270910  0.21756422    -0.11500
C1102       C  0.84430884  0.33614148  0.22948814     0.05500
C1103       C  0.82037219  0.34190410  0.21451475    -0.06800
C1104       C  0.81780240  0.33542821  0.18808735    -0.07500
C1105       C  0.83846760  0.32291585  0.17604265    -0.02100
C1106       C  0.86152160  0.31594796  0.19099241     0.04700
N1107       N  0.88361780  0.30402347  0.17928085     0.67300
H1108       H  0.88226278  0.31732144  0.22892172     0.16200
H1109       H  0.80034040  0.34138726  0.17669429     0.15900
N1110       N  0.80001188  0.35629400  0.22556865     0.75000
O1111       O  0.91301229  0.32630107  0.16891099    -0.38500
O1112       O  0.87581361  0.27198642  0.18187206    -0.38400
O1113       O  0.81292882  0.38963719  0.22561046    -0.39100
O1114       O  0.76704071  0.33593222  0.23033418    -0.39200
C1115       C  0.89529887  0.25563598  0.02278118    -0.11500
C1116       C  0.88469891  0.24881825  0.04878742     0.05500
C1117       C  0.88370821  0.21942364  0.06113156    -0.06800
C1118       C  0.89576988  0.19923062  0.04782364    -0.07500
C1119       C  0.90932867  0.20806163  0.02245180    -0.02100
C1120       C  0.90703753  0.23540097  0.00939721     0.04700
N1121       N  0.91657261  0.24306815  0.98269505     0.67300
H1122       H  0.89439646  0.27704494  0.01265110     0.16200
H1123       H  0.89716538  0.17828479  0.05822304     0.15900
N1124       N  0.87349331  0.21150296  0.08764133     0.75000
O1125       O  0.90433001  0.21804655  0.96641978    -0.38500
O1126       O  0.93359686  0.27497487  0.97489193    -0.38400
O1127       O  0.85110854  0.17995746  0.09435420    -0.39100
O1128       O  0.89033238  0.23478252  0.10471532    -0.39200
C1129       C  0.78846644  0.42924192  0.10654776    -0.11500
C1130       C  0.79950226  0.42437785  0.08221476     0.05500
C1131       C  0.79124343  0.43782329  0.06014548    -0.06800
C1132       C  0.77120174  0.45490571  0.06277392    -0.07500
C1133       C  0.75882816  0.45847644  0.08700591    -0.02100
C1134       C  0.76782127  0.44564863  0.10907961     0.04700
N1135       N  0.75559879  0.44837480  0.13410083     0.67300
H1136       H  0.79423535  0.41851847  0.12358491     0.16200
H1137       H  0.76456381  0.46472339  0.04564974     0.15900
N1138       N  0.80323558  0.43455345  0.03507838     0.75000
O1139       O  0.72729002  0.42238287  0.14316901    -0.38500
O1140       O  0.77590835  0.47406686  0.14860186    -0.38400
O1141       O  0.78213329  0.42533243  0.01604973    -0.39100
O1142       O  0.83585043  0.44408006  0.03148358    -0.39200
C1143       C  0.69530792  0.23357969  0.10209891    -0.11500
C1144       C  0.71259463  0.23930512  0.07824845     0.05500
C1145       C  0.69157948  0.22436084  0.05591057    -0.06800
C1146       C  0.65386368  0.20546960  0.05756528    -0.07500
C1147       C  0.63648293  0.20196622  0.08117974    -0.02100
C1148       C  0.65759604  0.21522922  0.10381519     0.04700
N1149       N  0.64115296  0.21084305  0.12860060     0.67300
H1150       H  0.71121590  0.24479701  0.11939301     0.16200
H1151       H  0.63817444  0.19550672  0.04004923     0.15900
N1152       N  0.70822599  0.22891802  0.03131091     0.75000
O1153       O  0.61695634  0.18033090  0.13598418    -0.38500
O1154       O  0.65274228  0.23687144  0.14396844    -0.38400
O1155       O  0.71223386  0.20423805  0.02212128    -0.39100
O1156       O  0.71386709  0.25496962  0.01723522    -0.39200
C1157       C  0.98057329  0.43975943  0.13413538    -0.11500
C1158       C  0.97709863  0.42671929  0.10867857     0.05500
C1159       C  0.00809471  0.43040152  0.09649549    -0.06800
C1160       C  0.04045683  0.44439636  0.11013666    -0.07500
C1161       C  0.04338223  0.45533070  0.13600529    -0.02100
C1162       C  0.01324083  0.45382103  0.14782037     0.04700
N1163       N  0.01446081  0.46367878  0.17421946     0.67300
H1164       H  0.95728423  0.43717910  0.14411180     0.16200
H1165       H  0.06359075  0.44627408  0.10034062     0.15900
N1166       N  0.00719082  0.41940002  0.07041886     0.75000
O1167       O  0.01191606  0.49055107  0.18001297    -0.38500
O1168       O  0.01385956  0.44326367  0.19179580    -0.38400
O1169       O  0.00856460  0.43933297  0.05220344    -0.39100
O1170       O  0.01012472  0.39247081  0.06563068    -0.39200
Zn1171     Zn  0.85934737  0.37943613  0.60318888     1.49700
Zn1172     Zn  0.80841410  0.34090806  0.55647680     1.49400
Zn1173     Zn  0.88801544  0.35571227  0.55724018     1.49100
Zn1174     Zn  0.82837103  0.29619514  0.59537432     1.49500
O1175       O  0.84564013  0.34234305  0.57797363    -1.83300
O1176       O  0.83830974  0.41049850  0.59658468    -0.74000
O1177       O  0.82128398  0.34150927  0.51958005    -0.73800
O1178       O  0.93445423  0.39288699  0.57526011    -0.73300
O1179       O  0.80171939  0.38284119  0.56364553    -0.74000
O1180       O  0.91269863  0.40838627  0.60822385    -0.73600
O1181       O  0.88076086  0.36453565  0.51985141    -0.74200
O1182       O  0.85121364  0.26959540  0.57783115    -0.73600
O1183       O  0.76117204  0.29596935  0.56263734    -0.74300
O1184       O  0.89180480  0.31272459  0.55281555    -0.73700
O1185       O  0.77317076  0.26548989  0.59155191    -0.74200
O1186       O  0.84035836  0.30544875  0.63414365    -0.74100
O1187       O  0.84262740  0.35775162  0.63709910    -0.73900
C1188       C  0.81499744  0.40779427  0.58030308     0.77900
C1189       C  0.85093749  0.35239866  0.50785590     0.78400
C1190       C  0.93925962  0.41006965  0.59628429     0.77400
C1191       C  0.87592884  0.28067863  0.56069946     0.77700
C1192       C  0.75091028  0.26891734  0.57721233     0.78900
C1193       C  0.84168250  0.33083824  0.64755197     0.77900
Zn1194     Zn  0.88593700  0.34193867  0.80778042     1.49700
Zn1195     Zn  0.86049952  0.37554771  0.85134629     1.49400
Zn1196     Zn  0.80965279  0.33546644  0.80614079     1.49100
Zn1197     Zn  0.82558401  0.28951236  0.84728613     1.49500
O1198       O  0.84513111  0.33510043  0.82820550    -1.83300
O1199       O  0.93221894  0.37604473  0.82671991    -0.74000
O1200       O  0.83925527  0.40754297  0.84444225    -0.73800
O1201       O  0.82377586  0.33679272  0.76957492    -0.73300
O1202       O  0.91420248  0.40360838  0.85391478    -0.74000
O1203       O  0.88170445  0.35278855  0.77027128    -0.73600
O1204       O  0.80149576  0.37666462  0.81314660    -0.74200
O1205       O  0.77091651  0.26077826  0.84252471    -0.73600
O1206       O  0.84664614  0.35677696  0.88675184    -0.74300
O1207       O  0.76271640  0.29147181  0.81159605    -0.73700
O1208       O  0.83600489  0.30088766  0.88588499    -0.74200
O1209       O  0.84589661  0.25840070  0.83296928    -0.74100
O1210       O  0.88521015  0.29587818  0.80440467    -0.73900
C1211       C  0.93855875  0.39825128  0.84492612     0.77900
C1212       C  0.81474717  0.40308138  0.82856831     0.78400
C1213       C  0.85293083  0.34492083  0.75797823     0.77400
C1214       C  0.75048094  0.26486696  0.82675543     0.77700
C1215       C  0.84133030  0.32863646  0.89826433     0.78900
C1216       C  0.86884418  0.26537524  0.81500420     0.77900
Zn1217     Zn  0.53821846  0.20038064  0.60202206     1.49700
Zn1218     Zn  0.51910490  0.13667646  0.56344500     1.49400
Zn1219     Zn  0.45941044  0.13452462  0.60166935     1.49100
Zn1220     Zn  0.48606273  0.18957824  0.55657490     1.49500
O1221       O  0.50095466  0.16495998  0.58062619    -1.83300
O1222       O  0.58576210  0.20387091  0.59590962    -0.74000
O1223       O  0.49597668  0.08588837  0.57994744    -0.73800
O1224       O  0.46580796  0.15260430  0.63814534    -0.73300
O1225       O  0.57450340  0.16173070  0.56699856    -0.74000
O1226       O  0.52529594  0.18780037  0.63854645    -0.73600
O1227       O  0.45647146  0.08757699  0.60665967    -0.74200
O1228       O  0.43196531  0.16628621  0.55374004    -0.73600
O1229       O  0.50725801  0.13540564  0.52508010    -0.74300
O1230       O  0.41292800  0.12523082  0.58434548    -0.73700
O1231       O  0.49913393  0.18221110  0.52183590    -0.74200
O1232       O  0.50833595  0.24273340  0.56358741    -0.74100
O1233       O  0.54439949  0.24884098  0.59607239    -0.73900
C1234       C  0.59649624  0.18767195  0.58125054     0.77900
C1235       C  0.47191478  0.07161454  0.59752123     0.78400
C1236       C  0.49546162  0.17032909  0.65027497     0.77400
C1237       C  0.40638771  0.13974738  0.56529514     0.77700
C1238       C  0.50220705  0.15725556  0.51160889     0.78900
C1239       C  0.53149354  0.26214899  0.58044742     0.77900
Zn1240     Zn  0.53356372  0.19889791  0.80925383     1.49700
Zn1241     Zn  0.46889704  0.12100676  0.80822513     1.49400
Zn1242     Zn  0.52386457  0.14621941  0.85305031     1.49100
Zn1243     Zn  0.46925195  0.17658044  0.84928054     1.49500
O1244       O  0.49856241  0.16109431  0.83023121    -1.83300
O1245       O  0.52067531  0.18759087  0.77237771    -0.74000
O1246       O  0.45853363  0.07426133  0.82467881    -0.73800
O1247       O  0.57669481  0.16870147  0.84560368    -0.73300
O1248       O  0.48789328  0.12843505  0.77199461    -0.74000
O1249       O  0.58318503  0.20653476  0.81447824    -0.73600
O1250       O  0.49998572  0.09313239  0.85522242    -0.74200
O1251       O  0.47021048  0.16459260  0.88755551    -0.73600
O1252       O  0.42218502  0.11882689  0.80336620    -0.74300
O1253       O  0.51872572  0.15876741  0.88828939    -0.73700
O1254       O  0.41790098  0.15332905  0.83314282    -0.74200
O1255       O  0.49259689  0.23125010  0.84681693    -0.74100
O1256       O  0.53556265  0.24450526  0.81788120    -0.73900
C1257       C  0.50414785  0.15821762  0.76015647     0.77900
C1258       C  0.47296645  0.06791794  0.84391844     0.78400
C1259       C  0.59640677  0.19312093  0.82970187     0.77400
C1260       C  0.49408218  0.16113589  0.89989741     0.77700
C1261       C  0.40488712  0.13199062  0.81392923     0.78900
C1262       C  0.51883625  0.25405155  0.83312336     0.77900
Zn1263     Zn  0.70851131  0.52550194  0.56472413     1.49700
Zn1264     Zn  0.67910870  0.55082534  0.60965466     1.49400
Zn1265     Zn  0.62278979  0.49071734  0.57037996     1.49100
Zn1266     Zn  0.66956349  0.47497426  0.61033956     1.49500
O1267       O  0.66924155  0.51023639  0.58849653    -1.83300
O1268       O  0.73844161  0.57836042  0.56234464    -0.74000
O1269       O  0.63394140  0.55171438  0.61348876    -0.73800
O1270       O  0.63320434  0.50096398  0.53165392    -0.73300
O1271       O  0.71584973  0.59717840  0.59272557    -0.74000
O1272       O  0.68937810  0.51167460  0.52987376    -0.73600
O1273       O  0.59362447  0.51237861  0.58607851    -0.74200
O1274       O  0.62741097  0.42749711  0.60271729    -0.73600
O1275       O  0.69002716  0.54538285  0.64659795    -0.74300
O1276       O  0.59361190  0.43595045  0.57452287    -0.73700
O1277       O  0.66649645  0.48661702  0.64657109    -0.74200
O1278       O  0.71344824  0.47044142  0.60568643    -0.74100
O1279       O  0.73939200  0.50441947  0.57145893    -0.73900
C1280       C  0.73708209  0.60351077  0.57376184     0.77900
C1281       C  0.60259144  0.53583493  0.60385858     0.78400
C1282       C  0.66076901  0.50611491  0.51874746     0.77400
C1283       C  0.59965489  0.41525273  0.58849126     0.77700
C1284       C  0.67731843  0.51580494  0.65857010     0.78900
C1285       C  0.73788457  0.48276074  0.58855340     0.77900
Zn1286     Zn  0.71217497  0.52984868  0.85523184     1.49700
Zn1287     Zn  0.66385432  0.46806748  0.81650073     1.49400
Zn1288     Zn  0.62360446  0.48003626  0.86204132     1.49100
Zn1289     Zn  0.65550741  0.53515265  0.81732026     1.49500
O1290       O  0.66435942  0.50354468  0.83843527    -1.83300
O1291       O  0.74118993  0.50384885  0.85019776    -0.74000
O1292       O  0.61988221  0.42058213  0.82183852    -0.73800
O1293       O  0.64395648  0.48830327  0.89710863    -0.73300
O1294       O  0.70618823  0.46216287  0.82220364    -0.74000
O1295       O  0.70225391  0.52999673  0.89379493    -0.73600
O1296       O  0.59080297  0.42644142  0.85494563    -0.74200
O1297       O  0.62050221  0.54712278  0.83421551    -0.73600
O1298       O  0.66567880  0.48239871  0.78021002    -0.74300
O1299       O  0.59464026  0.50508582  0.86392490    -0.73700
O1300       O  0.64328400  0.51854847  0.78061131    -0.74200
O1301       O  0.70137749  0.58013601  0.81248840    -0.74100
O1302       O  0.74225429  0.58086252  0.83908029    -0.73900
C1303       C  0.73467910  0.47744498  0.83569863     0.77900
C1304       C  0.59353052  0.40727988  0.83744892     0.78400
C1305       C  0.67399386  0.51053299  0.90720952     0.77400
C1306       C  0.59824569  0.53282482  0.85270965     0.77700
C1307       C  0.65504037  0.50103780  0.76841942     0.78900
C1308       C  0.73320195  0.59527775  0.82125336     0.77900
Zn1309     Zn  0.33197300  0.80466299  0.63875678     1.49700
Zn1310     Zn  0.31988377  0.87039989  0.64064096     1.49400
Zn1311     Zn  0.29210794  0.81331669  0.68495084     1.49100
Zn1312     Zn  0.37749998  0.86820037  0.67921434     1.49500
O1313       O  0.33113957  0.83954394  0.66096311    -1.83300
O1314       O  0.32916665  0.81662655  0.60207743    -0.74000
O1315       O  0.28316146  0.87901927  0.65907655    -0.73800
O1316       O  0.26232620  0.76015474  0.67910654    -0.73300
O1317       O  0.30893573  0.85482987  0.60345633    -0.74000
O1318       O  0.29166510  0.75460259  0.64617922    -0.73600
O1319       O  0.26157183  0.83519499  0.68794969    -0.74200
O1320       O  0.36656527  0.86839987  0.71821226    -0.73600
O1321       O  0.36434190  0.91719563  0.63625840    -0.74300
O1322       O  0.31117500  0.82111444  0.72003209    -0.73700
O1323       O  0.40588424  0.91917468  0.66276074    -0.74200
O1324       O  0.40808638  0.84419634  0.67455969    -0.74100
O1325       O  0.37742453  0.80416912  0.64411703    -0.73900
C1326       C  0.31868743  0.83590004  0.59089545     0.77900
C1327       C  0.26288601  0.86269298  0.67823959     0.78400
C1328       C  0.26656811  0.74070167  0.66284917     0.77400
C1329       C  0.33879235  0.84597033  0.73102731     0.77700
C1330       C  0.39615134  0.93327973  0.64512296     0.78900
C1331       C  0.40447915  0.81972629  0.65902270     0.77900
Zn1332     Zn  0.29170222  0.81199909  0.93714493     1.49700
Zn1333     Zn  0.31164543  0.86497789  0.89076473     1.49400
Zn1334     Zn  0.37359981  0.86911357  0.92854911     1.49100
Zn1335     Zn  0.33066203  0.80525162  0.88919946     1.49500
O1336       O  0.32726771  0.83827680  0.91159125    -1.83300
O1337       O  0.25888091  0.83161326  0.94154107    -0.74000
O1338       O  0.35460409  0.91285385  0.88498723    -0.73800
O1339       O  0.36537329  0.87305095  0.96718328    -0.73300
O1340       O  0.27309247  0.87090035  0.90985568    -0.74000
O1341       O  0.31509134  0.82046087  0.97118581    -0.73600
O1342       O  0.39924074  0.91713687  0.90924954    -0.74200
O1343       O  0.37466846  0.80382576  0.89701804    -0.73600
O1344       O  0.30084670  0.84701954  0.85354469    -0.74300
O1345       O  0.40477340  0.84579190  0.92636327    -0.73700
O1346       O  0.33387309  0.82085561  0.85285064    -0.74200
O1347       O  0.29011221  0.75489780  0.89451044    -0.74100
O1348       O  0.26492453  0.75919733  0.93060329    -0.73900
C1349       C  0.25577575  0.85612047  0.93056426     0.77900
C1350       C  0.38739649  0.92958984  0.89189110     0.78400
C1351       C  0.34166213  0.84784118  0.98113117     0.77400
C1352       C  0.40104587  0.81999028  0.91233612     0.77700
C1353       C  0.31872285  0.83555063  0.84122502     0.78900
C1354       C  0.26772512  0.74048538  0.91289098     0.77900
Zn1355     Zn  0.19334109  0.47987751  0.69130340     1.49700
Zn1356     Zn  0.13981813  0.51087941  0.68413672     1.49400
Zn1357     Zn  0.20298598  0.52792714  0.64465237     1.49100
Zn1358     Zn  0.13825745  0.45075792  0.64593130     1.49500
O1359       O  0.16806806  0.49257155  0.66682745    -1.83300
O1360       O  0.18852111  0.49557209  0.72567257    -0.74000
O1361       O  0.16446839  0.56569726  0.67909324    -0.73800
O1362       O  0.25189834  0.53377856  0.64946537    -0.73300
O1363       O  0.13930597  0.50010529  0.72306439    -0.74000
O1364       O  0.24609287  0.50100145  0.68386142    -0.73600
O1365       O  0.20732244  0.57474052  0.65122263    -0.74200
O1366       O  0.15425312  0.45659228  0.60857966    -0.73600
O1367       O  0.08905918  0.48790163  0.66704509    -0.74300
O1368       O  0.18708321  0.51560451  0.60852481    -0.73700
O1369       O  0.09148839  0.44809680  0.64141564    -0.74200
O1370       O  0.12936560  0.40502164  0.66358325    -0.74100
O1371       O  0.16907205  0.42693279  0.69545496    -0.73900
C1372       C  0.16289383  0.49725782  0.73634571     0.77900
C1373       C  0.19088214  0.58650255  0.66462438     0.78400
C1374       C  0.26542144  0.52251199  0.66624485     0.77400
C1375       C  0.16943437  0.48629039  0.59650678     0.77700
C1376       C  0.07537605  0.46394632  0.64945937     0.78900
C1377       C  0.14331061  0.40058461  0.68396351     0.77900
Zn1378     Zn  0.14756213  0.51408405  0.89515793     1.49700
Zn1379     Zn  0.20121640  0.52461534  0.93909652     1.49400
Zn1380     Zn  0.12362046  0.45698302  0.93840682     1.49100
Zn1381     Zn  0.18175576  0.46288002  0.89771772     1.49500
O1382       O  0.16405427  0.48953176  0.91740932    -1.83300
O1383       O  0.17259178  0.56683809  0.90070039    -0.74000
O1384       O  0.18790432  0.51120999  0.97560159    -0.73800
O1385       O  0.07673860  0.44478849  0.92035338    -0.73300
O1386       O  0.20903636  0.57416930  0.93329424    -0.74000
O1387       O  0.09435266  0.49268769  0.89573227    -0.73600
O1388       O  0.12862038  0.47426938  0.97509413    -0.74200
O1389       O  0.16293628  0.41256848  0.91401534    -0.73600
O1390       O  0.24834778  0.52782020  0.93170387    -0.74300
O1391       O  0.12474655  0.41213144  0.94303197    -0.73700
O1392       O  0.23672279  0.48995653  0.89924018    -0.74200
O1393       O  0.16782346  0.46216316  0.85965146    -0.74100
O1394       O  0.15551435  0.50611449  0.85920497    -0.73900
C1395       C  0.19664274  0.58687320  0.91673771     0.77900
C1396       C  0.15813082  0.49259070  0.98728688     0.78400
C1397       C  0.06991087  0.46249273  0.90391034     0.77400
C1398       C  0.14095303  0.39766618  0.93273554     0.77700
C1399       C  0.25880681  0.51429817  0.91445145     0.78900
C1400       C  0.16036604  0.48328374  0.84741702     0.77900
Zn1401     Zn  0.52429307  0.71439900  0.68762704     1.49700
Zn1402     Zn  0.47498433  0.67369774  0.64189420     1.49400
Zn1403     Zn  0.55302983  0.68627987  0.64292612     1.49100
Zn1404     Zn  0.49514418  0.63115949  0.68309368     1.49500
O1405       O  0.51160775  0.67589026  0.66381528    -1.83300
O1406       O  0.50384782  0.74622790  0.67908538    -0.74000
O1407       O  0.48834947  0.67388716  0.60528680    -0.73800
O1408       O  0.59905241  0.72171849  0.66169514    -0.73300
O1409       O  0.46650653  0.71488269  0.64754937    -0.74000
O1410       O  0.57736160  0.74157685  0.69230996    -0.73600
O1411       O  0.54765351  0.69748309  0.60568380    -0.74200
O1412       O  0.51714353  0.60254318  0.66784146    -0.73600
O1413       O  0.42928528  0.62872074  0.64854592    -0.74300
O1414       O  0.55394056  0.64126399  0.63867214    -0.73700
O1415       O  0.44081416  0.59972660  0.67898983    -0.74200
O1416       O  0.50592495  0.64267671  0.72159761    -0.74100
O1417       O  0.50740782  0.69470382  0.72239396    -0.73900
C1418       C  0.47968009  0.74148529  0.66281935     0.77900
C1419       C  0.51804839  0.68542528  0.59345287     0.78400
C1420       C  0.60343897  0.74041879  0.68183932     0.77400
C1421       C  0.53910818  0.61058674  0.64905273     0.77700
C1422       C  0.41902191  0.60220371  0.66361943     0.78900
C1423       C  0.50644218  0.66840133  0.73397546     0.77900
Zn1424     Zn  0.46869386  0.67344636  0.89151836     1.49700
Zn1425     Zn  0.51479708  0.70976168  0.93982774     1.49400
Zn1426     Zn  0.48879757  0.62859523  0.93133561     1.49100
Zn1427     Zn  0.54833271  0.68852748  0.89444242     1.49500
O1428       O  0.50474080  0.67436916  0.91383503    -1.83300
O1429       O  0.46193440  0.71594346  0.89811222    -0.74000
O1430       O  0.49246606  0.68642589  0.97261903    -0.73800
O1431       O  0.43483719  0.59669905  0.92498210    -0.73300
O1432       O  0.49748225  0.74393730  0.93137831    -0.74000
O1433       O  0.42195901  0.62721874  0.89666707    -0.73600
O1434       O  0.49766699  0.63805418  0.97053451    -0.74200
O1435       O  0.55372389  0.64610204  0.89042398    -0.73600
O1436       O  0.56717541  0.73575534  0.94787999    -0.74300
O1437       O  0.51412751  0.60297394  0.91575170    -0.73700
O1438       O  0.59256420  0.72538290  0.91422583    -0.74200
O1439       O  0.54364026  0.69912612  0.85693038    -0.74100
O1440       O  0.48424515  0.67590169  0.85494399    -0.73900
C1441       C  0.47534865  0.74169752  0.91420964     0.77900
C1442       C  0.49471512  0.66148019  0.98361272     0.78400
C1443       C  0.41236122  0.59953142  0.91052931     0.77400
C1444       C  0.53907365  0.61430209  0.89880486     0.77700
C1445       C  0.59482966  0.73945013  0.93627919     0.78900
C1446       C  0.51463152  0.68773627  0.84399354     0.77900
Zn1447     Zn  0.14369849  0.96151027  0.97800162     1.49700
Zn1448     Zn  0.20044396  0.04315288  0.98536177     1.49400
Zn1449     Zn  0.13681320  0.00264655  0.52534115     1.49100
Zn1450     Zn  0.20015088  0.98607833  0.52211457     1.49500
O1451       O  0.17060709  0.00007143  0.50269462    -1.83300
O1452       O  0.14657921  0.98446268  0.94462307    -0.74000
O1453       O  0.17663681  0.07402137  0.98946018    -0.73800
O1454       O  0.08659778  0.96119444  0.52038893    -0.73300
O1455       O  0.20086963  0.03276056  0.94667343    -0.74000
O1456       O  0.09157345  0.92945300  0.98724552    -0.73600
O1457       O  0.13509251  0.04724662  0.51931832    -0.74200
O1458       O  0.18544077  0.97719679  0.56007860    -0.73600
O1459       O  0.25162575  0.06897793  0.00143982    -0.74300
O1460       O  0.15095863  0.00190984  0.56152961    -0.73700
O1461       O  0.24842740  0.02881828  0.52517450    -0.74200
O1462       O  0.20631758  0.94782834  0.50300952    -0.74100
O1463       O  0.16687678  0.93259781  0.97089321    -0.73900
C1464       C  0.17438973  0.00914902  0.93354982     0.77900
C1465       C  0.15094397  0.07360413  0.50399315     0.78400
C1466       C  0.07265068  0.93220678  0.00489574     0.77400
C1467       C  0.16861304  0.98952442  0.57275002     0.77700
C1468       C  0.26540392  0.06093043  0.51733658     0.78900
C1469       C  0.19089796  0.92852317  0.98195199     0.77900
Zn1470     Zn  0.20226934  0.98311777  0.77409812     1.49700
Zn1471     Zn  0.13555032  0.99391787  0.77567386     1.49400
Zn1472     Zn  0.19915709  0.03913350  0.73494831     1.49100
Zn1473     Zn  0.14539701  0.95740297  0.72848256     1.49500
O1474       O  0.17107152  0.99396536  0.75369806    -1.83300
O1475       O  0.18731332  0.97405438  0.81196388    -0.74000
O1476       O  0.13220856  0.03723128  0.76834158    -0.73800
O1477       O  0.24980145  0.06816622  0.75101795    -0.73300
O1478       O  0.14982211  0.99534702  0.81222640    -0.74000
O1479       O  0.24954259  0.02787912  0.77773706    -0.73600
O1480       O  0.17388795  0.06815094  0.73864206    -0.74200
O1481       O  0.14736231  0.97841787  0.69440929    -0.73600
O1482       O  0.08656589  0.95009560  0.77054568    -0.74300
O1483       O  0.20034762  0.02856577  0.69630077    -0.73700
O1484       O  0.09362081  0.92314134  0.73671553    -0.74200
O1485       O  0.17122106  0.93137045  0.72282340    -0.74100
O1486       O  0.21029777  0.94607028  0.75509497    -0.73900
C1487       C  0.16914637  0.98536451  0.82403234     0.77900
C1488       C  0.14820970  0.06394560  0.75329776     0.78400
C1489       C  0.26475360  0.05927331  0.76850867     0.77400
C1490       C  0.17442568  0.00393561  0.68333828     0.77700
C1491       C  0.07391743  0.92462721  0.75428559     0.78900
C1492       C  0.19653165  0.92959454  0.73394296     0.77900
Zn1493     Zn  0.00394191  0.13502114  0.97826057     1.49700
Zn1494     Zn  0.04873836  0.20158291  0.51977685     1.49400
Zn1495     Zn  0.99162863  0.19990150  0.97836910     1.49100
Zn1496     Zn  0.96230790  0.15185093  0.52380845     1.49500
O1497       O  0.00222383  0.17003905  0.00001551    -1.83300
O1498       O  0.04769224  0.13154483  0.98562210    -0.74000
O1499       O  0.07941315  0.25154351  0.50264516    -0.73800
O1500       O  0.98169857  0.18320801  0.94147509    -0.73300
O1501       O  0.07764832  0.17552728  0.51703244    -0.74000
O1502       O  0.00638962  0.14911241  0.94163457    -0.73600
O1503       O  0.03632866  0.24608086  0.97412503    -0.74200
O1504       O  0.93112803  0.17355507  0.52359697    -0.73600
O1505       O  0.03683379  0.20261989  0.55831037    -0.74300
O1506       O  0.95401808  0.20910753  0.99425675    -0.73700
O1507       O  0.97926730  0.15984572  0.55945810    -0.74200
O1508       O  0.93250895  0.09969729  0.51792169    -0.74100
O1509       O  0.96074678  0.08612894  0.98361439    -0.73900
C1510       C  0.07417427  0.14720296  0.00100745     0.77900
C1511       C  0.06821184  0.26210131  0.98285447     0.78400
C1512       C  0.99521434  0.16712837  0.92949857     0.77400
C1513       C  0.93400449  0.20095215  0.51251358     0.77700
C1514       C  0.00793771  0.18225470  0.57085566     0.78900
C1515       C  0.93496978  0.07913801  0.50172559     0.77900
Zn1516     Zn  0.01621390  0.21179783  0.77037098     1.49700
Zn1517     Zn  0.95642611  0.15072252  0.73362592     1.49400
Zn1518     Zn  0.04010192  0.18038304  0.72520610     1.49100
Zn1519     Zn  0.00373195  0.13465746  0.77305773     1.49500
O1520       O  0.00339753  0.16919081  0.75063772    -1.83300
O1521       O  0.97186986  0.21412782  0.77603130    -0.74000
O1522       O  0.96702517  0.16308247  0.69477328    -0.73800
O1523       O  0.06815092  0.23309634  0.71880350    -0.73300
O1524       O  0.92875094  0.17343025  0.75098298    -0.74000
O1525       O  0.05210973  0.25627043  0.75076843    -0.73600
O1526       O  0.01717048  0.16056549  0.69198107    -0.74200
O1527       O  0.04495052  0.12682245  0.76644709    -0.73600
O1528       O  0.92683358  0.09565641  0.73851193    -0.74300
O1529       O  0.07266331  0.16056430  0.73253217    -0.73700
O1530       O  0.95954507  0.08817628  0.76835595    -0.74200
O1531       O  0.00645710  0.14965030  0.80917445    -0.74100
O1532       O  0.03034726  0.20852320  0.80705001    -0.73900
C1533       C  0.93950202  0.19793066  0.76818503     0.77900
C1534       C  0.99212599  0.16329077  0.68133599     0.78400
C1535       C  0.06931598  0.25977868  0.72991072     0.77400
C1536       C  0.06981720  0.13832937  0.74967176     0.77700
C1537       C  0.93198744  0.07556986  0.75392489     0.78900
C1538       C  0.01941396  0.17989036  0.82002390     0.77900
Zn1539     Zn  0.84278105  0.79717876  0.99102272     1.49700
Zn1540     Zn  0.81170844  0.84855251  0.98215093     1.49400
Zn1541     Zn  0.78004006  0.80235542  0.52823841     1.49100
Zn1542     Zn  0.85830607  0.86683642  0.52929292     1.49500
O1543       O  0.82368180  0.82470038  0.00794883    -1.83300
O1544       O  0.83205388  0.79338536  0.95201496    -0.74000
O1545       O  0.75876784  0.82605021  0.97833231    -0.73800
O1546       O  0.77651737  0.75574997  0.53214154    -0.73300
O1547       O  0.82738850  0.84201250  0.94804150    -0.74000
O1548       O  0.82177691  0.74895452  0.00925003    -0.73600
O1549       O  0.73390725  0.79311928  0.50979121    -0.74200
O1550       O  0.84588622  0.85344423  0.56587397    -0.73600
O1551       O  0.83454835  0.90087200  0.98796729    -0.74300
O1552       O  0.78658752  0.81746620  0.56617933    -0.73700
O1553       O  0.86422770  0.91482049  0.52265646    -0.74200
O1554       O  0.90582421  0.87128457  0.52315056    -0.74100
O1555       O  0.89765141  0.82275365  0.99542482    -0.73900
C1556       C  0.83028096  0.81685123  0.93815220     0.77900
C1557       C  0.73153450  0.80085994  0.98953434     0.78400
C1558       C  0.79290816  0.74002153  0.52449165     0.77400
C1559       C  0.81660023  0.83489408  0.57804543     0.77700
C1560       C  0.85659785  0.92098985  0.00503261     0.78900
C1561       C  0.91752339  0.85471806  0.50986116     0.77900
Zn1562     Zn  0.78603245  0.79382018  0.77812372     1.49700
Zn1563     Zn  0.84398223  0.79629224  0.73806356     1.49400
Zn1564     Zn  0.81743168  0.85074269  0.73272459     1.49100
Zn1565     Zn  0.86412573  0.85964113  0.77922633     1.49500
O1566       O  0.82797603  0.82462781  0.75749498    -1.83300
O1567       O  0.78397862  0.74710853  0.78217516    -0.74000
O1568       O  0.83118696  0.79568251  0.69958961    -0.73800
O1569       O  0.76513949  0.82474861  0.72683424    -0.73300
O1570       O  0.82277098  0.74603194  0.75440802    -0.74000
O1571       O  0.74045776  0.78552285  0.75885911    -0.73600
O1572       O  0.83727659  0.84961254  0.69872118    -0.74200
O1573       O  0.87062938  0.90903856  0.77451347    -0.73600
O1574       O  0.89863342  0.82123914  0.74077761    -0.74300
O1575       O  0.83539036  0.90225085  0.74139779    -0.73700
O1576       O  0.91015309  0.86237297  0.77080912    -0.74200
O1577       O  0.85222888  0.84465314  0.81573583    -0.74100
O1578       O  0.79277391  0.80926434  0.81596743    -0.73900
C1579       C  0.79981609  0.73175818  0.77263030     0.77900
C1580       C  0.83383333  0.82233010  0.68707132     0.78400
C1581       C  0.73778488  0.79932274  0.73771640     0.77400
C1582       C  0.85765190  0.92194000  0.75855366     0.77700
C1583       C  0.92056568  0.84676696  0.75527443     0.78900
C1584       C  0.82286235  0.82613520  0.82786485     0.77900
C1585       C  0.80144400  0.79105524  0.86887002    -0.11500
C1586       C  0.82474395  0.82337282  0.85623665     0.05500
C1587       C  0.85200621  0.85174046  0.87067071    -0.06800
C1588       C  0.85467508  0.84793696  0.89713957    -0.07500
C1589       C  0.83105522  0.81608082  0.90982673    -0.02100
C1590       C  0.80454544  0.78721203  0.89550627     0.04700
N1591       N  0.77942662  0.75468414  0.90798247     0.67300
H1592       H  0.78089328  0.76870392  0.85803823     0.16200
H1593       H  0.87470702  0.87056732  0.90807479     0.15900
N1594       N  0.87616920  0.88531245  0.85899178     0.75000
O1595       O  0.75234732  0.75223215  0.91930539    -0.38500
O1596       O  0.78473028  0.72861873  0.90820328    -0.38400
O1597       O  0.86870626  0.90993094  0.85930816    -0.39100
O1598       O  0.90751338  0.89248054  0.85299089    -0.39200
C1599       C  0.85235103  0.85576344  0.64621180    -0.11500
C1600       C  0.83165805  0.82271904  0.65858114     0.05500
C1601       C  0.80463371  0.79378302  0.64439287    -0.06800
C1602       C  0.79822850  0.79895775  0.61856158    -0.07500
C1603       C  0.81886683  0.83222147  0.60637453    -0.02100
C1604       C  0.84616558  0.86090401  0.62054540     0.04700
N1605       N  0.86713377  0.89576755  0.60938747     0.67300
H1606       H  0.87263635  0.87840194  0.65699927     0.16200
H1607       H  0.77805842  0.77643108  0.60763877     0.15900
N1608       N  0.78313188  0.75932448  0.65592036     0.75000
O1609       O  0.85176173  0.91040134  0.59831215    -0.38500
O1610       O  0.90080463  0.91320743  0.61247420    -0.38400
O1611       O  0.74936323  0.74307423  0.65352342    -0.39100
O1612       O  0.79797111  0.74261933  0.66439500    -0.39200
C1613       C  0.90531495  0.01921380  0.77888862    -0.11500
C1614       C  0.90675446  0.03644577  0.75557520     0.05500
C1615       C  0.88759215  0.01544633  0.73416927    -0.06800
C1616       C  0.86950021  0.97798996  0.73600971    -0.07500
C1617       C  0.87042041  0.96087181  0.75887520    -0.02100
C1618       C  0.88740805  0.98201594  0.78075045     0.04700
N1619       N  0.88704331  0.96618095  0.80500183     0.67300
H1620       H  0.91906672  0.03481842  0.79580425     0.16200
H1621       H  0.85671397  0.96235480  0.71891191     0.15900
N1622       N  0.88902704  0.03155002  0.70984270     0.75000
O1623       O  0.91607913  0.97117777  0.81477123    -0.38500
O1624       O  0.85847155  0.95108110  0.81808728    -0.38400
O1625       O  0.91544751  0.04042398  0.69503381    -0.39100
O1626       O  0.86203486  0.03285072  0.70184499    -0.39200
C1627       C  0.01278729  0.15007578  0.88881248    -0.11500
C1628       C  0.00040631  0.17071270  0.90115612     0.05500
C1629       C  0.99768800  0.19693977  0.88668175    -0.06800
C1630       C  0.00724904  0.20182216  0.86056898    -0.07500
C1631       C  0.01878055  0.18054525  0.84834152    -0.02100
C1632       C  0.02231159  0.15494801  0.86280318     0.04700
N1633       N  0.03587817  0.13395716  0.85136689     0.67300
H1634       H  0.01592106  0.13036797  0.89954369     0.16200
H1635       H  0.00353354  0.22089664  0.84943998     0.15900
N1636       N  0.98462935  0.21833654  0.89790564     0.75000
O1637       O  0.06461406  0.14887655  0.83842388    -0.38500
O1638       O  0.02058259  0.10083599  0.85565544    -0.38400
O1639       O  0.00477932  0.25177193  0.89894655    -0.39100
O1640       O  0.95149293  0.20467050  0.90255937    -0.39200
C1641       C  0.02919298  0.18166935  0.64157580    -0.11500
C1642       C  0.99512072  0.16924939  0.65299397     0.05500
C1643       C  0.96653273  0.16516730  0.63733370    -0.06800
C1644       C  0.97235808  0.17230052  0.61083804    -0.07500
C1645       C  0.00607320  0.18316001  0.59935818    -0.02100
C1646       C  0.03505160  0.18908704  0.61521765     0.04700
N1647       N  0.07024764  0.20139881  0.60491588     0.67300
H1648       H  0.05199581  0.18630415  0.65328220     0.16200
H1649       H  0.94975973  0.16772009  0.59889299     0.15900
N1650       N  0.93114737  0.15212949  0.64756023     0.75000
O1651       O  0.08775519  0.23236906  0.59544731    -0.38500
O1652       O  0.08637281  0.18455889  0.60986379    -0.38400
O1653       O  0.91398259  0.16777944  0.64208768    -0.39100
O1654       O  0.91506312  0.12221759  0.65874813    -0.39200
C1655       C  0.87825214  0.98546253  0.52709310    -0.11500
C1656       C  0.87216183  0.95981102  0.00309836     0.05500
C1657       C  0.88306238  0.97763168  0.97912737    -0.06800
C1658       C  0.90206661  0.01496341  0.97851782    -0.07500
C1659       C  0.90880844  0.04073267  0.50284755    -0.02100
C1660       C  0.89880242  0.02264779  0.52665665     0.04700
N1661       N  0.91207559  0.04140366  0.55043503     0.67300
H1662       H  0.87246039  0.97178461  0.54548746     0.16200
H1663       H  0.91177436  0.02846900  0.96019076     0.15900
N1664       N  0.87773903  0.95846017  0.95551494     0.75000
O1665       O  0.89177286  0.04722372  0.56458566    -0.38500
O1666       O  0.94276898  0.04893143  0.55849794    -0.38400
O1667       O  0.86359561  0.96476517  0.93643321    -0.39100
O1668       O  0.89169538  0.93916323  0.95254032    -0.39200
C1669       C  0.97832656  0.87077267  0.77787408    -0.11500
C1670       C  0.95938143  0.85967716  0.75459827     0.05500
C1671       C  0.97844804  0.86498684  0.73141605    -0.06800
C1672       C  0.01621123  0.88389863  0.73177294    -0.07500
C1673       C  0.03512765  0.89764591  0.75498831    -0.02100
C1674       C  0.01578305  0.88920807  0.77827724     0.04700
N1675       N  0.03387696  0.89844933  0.80252901     0.67300
H1676       H  0.96386252  0.86560521  0.79593473     0.16200
H1677       H  0.03064790  0.89009073  0.71365527     0.15900
N1678       N  0.96007907  0.85469572  0.70724542     0.75000
O1679       O  0.02644807  0.91509569  0.81903637    -0.38500
O1680       O  0.05187004  0.88410299  0.80912861    -0.38400
O1681       O  0.94945383  0.87399822  0.69674873    -0.39100
O1682       O  0.95742347  0.82818001  0.69527478    -0.39200
C1683       C  0.12934366  0.10127928  0.72887277    -0.11500
C1684       C  0.13519714  0.08959121  0.75265047     0.05500
C1685       C  0.12291059  0.09770078  0.77542804    -0.06800
C1686       C  0.10283160  0.11478296  0.77397131    -0.07500
C1687       C  0.09496000  0.12453367  0.75015818    -0.02100
C1688       C  0.10900325  0.11832999  0.72740363     0.04700
N1689       N  0.09963356  0.12558751  0.70259735     0.67300
H1690       H  0.13802894  0.09458026  0.71121131     0.16200
H1691       H  0.09286861  0.12002474  0.79163820     0.15900
N1692       N  0.13029474  0.08830241  0.80019983     0.75000
O1693       O  0.12362233  0.14897408  0.68827851    -0.38500
O1694       O  0.06843476  0.10559687  0.69373041    -0.38400
O1695       O  0.16236428  0.10190316  0.80790557    -0.39100
O1696       O  0.10479736  0.06904903  0.81530223    -0.39200
C1697       C  0.14176515  0.98785018  0.89243233    -0.11500
C1698       C  0.17507733  0.00769519  0.90495776     0.05500
C1699       C  0.20698966  0.01940461  0.89047088    -0.06800
C1700       C  0.20460133  0.00943031  0.86439212    -0.07500
C1701       C  0.17107902  0.98891857  0.85233207    -0.02100
C1702       C  0.13950250  0.97812053  0.86662877     0.04700
N1703       N  0.10485274  0.95538011  0.85551987     0.67300
H1704       H  0.11693361  0.97826380  0.90311207     0.16200
H1705       H  0.22902114  0.01918877  0.85317301     0.15900
N1706       N  0.24180049  0.04139244  0.90168445     0.75000
O1707       O  0.09850611  0.92665032  0.84491933    -0.38500
O1708       O  0.07923222  0.96093036  0.85982408    -0.38400
O1709       O  0.26627022  0.03395223  0.89807088    -0.39100
O1710       O  0.25010687  0.07168067  0.91053651    -0.39200
C1711       C  0.20324029  0.00482440  0.61389841    -0.11500
C1712       C  0.17005339  0.99108605  0.60114875     0.05500
C1713       C  0.13924783  0.98383491  0.61541587    -0.06800
C1714       C  0.14190102  0.98993682  0.64192634    -0.07500
C1715       C  0.17483151  0.00314361  0.65487625    -0.02100
C1716       C  0.20586579  0.01088086  0.64063532     0.04700
N1717       N  0.23979387  0.02355420  0.65311145     0.67300
H1718       H  0.22726230  0.01130080  0.60302045     0.16200
H1719       H  0.11773785  0.98352553  0.65260329     0.15900
N1720       N  0.10482746  0.96944283  0.60328228     0.75000
O1721       O  0.24486844  0.00283552  0.66727588    -0.38500
O1722       O  0.26583417  0.05411025  0.64777020    -0.38400
O1723       O  0.08911671  0.93795789  0.59466674    -0.39100
O1724       O  0.08892206  0.98717225  0.60290985    -0.39200
C1725       C  0.01528036  0.90791448  0.52971100    -0.11500
C1726       C  0.03351430  0.90598729  0.00656107     0.05500
C1727       C  0.01289429  0.88662731  0.98489535    -0.06800
C1728       C  0.97540669  0.86482701  0.98711370    -0.07500
C1729       C  0.95686734  0.86850105  0.51025396    -0.02100
C1730       C  0.97781553  0.88734938  0.53194316     0.04700
N1731       N  0.96144321  0.88604462  0.55633888     0.67300
H1732       H  0.03081832  0.92284646  0.54633510     0.16200
H1733       H  0.95973506  0.85216839  0.96997124     0.15900
N1734       N  0.02899445  0.89113136  0.96003121     0.75000
O1735       O  0.93765751  0.85649301  0.56549898    -0.38500
O1736       O  0.97302451  0.91387908  0.56986675    -0.38400
O1737       O  0.02614249  0.86442982  0.94820254    -0.39100
O1738       O  0.04071685  0.91722110  0.44734660    -0.39200
C1739       C  0.10978728  0.12426485  0.97885825    -0.11500
C1740       C  0.10009594  0.13411871  0.00198998     0.05500
C1741       C  0.10834814  0.12670522  0.52686055    -0.06800
C1742       C  0.12680958  0.10771517  0.52672776    -0.07500
C1743       C  0.13822504  0.09975903  0.50354239    -0.02100
C1744       C  0.12849183  0.10547647  0.97888760     0.04700
N1745       N  0.13458330  0.09306321  0.95490257     0.67300
H1746       H  0.10097303  0.12944435  0.96062145     0.16200
H1747       H  0.13103291  0.09790618  0.54484456     0.15900
N1748       N  0.09540726  0.13217819  0.55075532     0.75000
O1749       O  0.12324781  0.07648242  0.44471637    -0.38500
O1750       O  0.15005412  0.11478618  0.93668166    -0.38400
O1751       O  0.06616034  0.10776279  0.55998367    -0.39100
O1752       O  0.12642783  0.15794577  0.06447657    -0.39200
C1753       C  0.63048445  0.75080412  0.97622614    -0.11500
C1754       C  0.62972567  0.75824750  0.94991196     0.05500
C1755       C  0.66227548  0.78089873  0.93710715    -0.06800
C1756       C  0.69476299  0.79512865  0.95078444    -0.07500
C1757       C  0.69575666  0.78736068  0.97709993    -0.02100
C1758       C  0.66297783  0.76491721  0.98984508     0.04700
N1759       N  0.66097694  0.75621045  0.51460370     0.67300
H1760       H  0.60561664  0.73308117  0.98619505     0.16200
H1761       H  0.71955221  0.81210894  0.94051965     0.15900
N1762       N  0.66283221  0.79007354  0.91044253     0.75000
O1763       O  0.64880702  0.76821317  0.53149554    -0.38500
O1764       O  0.66602928  0.73076633  0.52024444    -0.38400
O1765       O  0.64101963  0.79912154  0.90210708    -0.39100
O1766       O  0.68727997  0.79245230  0.89572999    -0.39200
C1767       C  0.48854081  0.68498942  0.77426289    -0.11500
C1768       C  0.50670248  0.66953426  0.76243258     0.05500
C1769       C  0.52929802  0.66185795  0.77753229    -0.06800
C1770       C  0.53354281  0.67025771  0.80393628    -0.07500
C1771       C  0.51515529  0.68562298  0.81562350    -0.02100
C1772       C  0.49271713  0.69325667  0.80046612     0.04700
N1773       N  0.47615605  0.71185141  0.81106988     0.67300
H1774       H  0.47202424  0.69210161  0.76277975     0.16200
H1775       H  0.55018892  0.66347304  0.81555408     0.15900
N1776       N  0.54869543  0.64642683  0.76635134     0.75000
O1777       O  0.49569082  0.74199850  0.82124011    -0.38500
O1778       O  0.44363392  0.70157047  0.80621106    -0.38400
O1779       O  0.58237986  0.66169778  0.76903931    -0.39100
O1780       O  0.53177526  0.61485133  0.75793726    -0.39200
C1781       C  0.52644001  0.66137061  0.52433129    -0.11500
C1782       C  0.49995982  0.66609817  0.51227680     0.05500
C1783       C  0.48189032  0.67979671  0.52676457    -0.06800
C1784       C  0.49028579  0.68816158  0.55271448    -0.07500
C1785       C  0.51656112  0.68330176  0.56497757    -0.02100
C1786       C  0.53541450  0.67032998  0.55040409     0.04700
N1787       N  0.56317961  0.66553545  0.56158894     0.67300
H1788       H  0.54141925  0.65217224  0.51311316     0.16200
H1789       H  0.47523802  0.69758600  0.56363290     0.15900
N1790       N  0.45415505  0.68447205  0.51557024     0.75000
O1791       O  0.56489451  0.63812149  0.55603522    -0.38500
O1792       O  0.59014742  0.69173367  0.57183359    -0.38400
O1793       O  0.42508767  0.65889400  0.00536437    -0.39100
O1794       O  0.45790331  0.71521591  0.51425795    -0.39200
C1795       C  0.63805755  0.75676138  0.72250691    -0.11500
C1796       C  0.63848180  0.75834012  0.69536549     0.05500
C1797       C  0.67172583  0.77344523  0.68234251    -0.06800
C1798       C  0.70351107  0.78656236  0.69677298    -0.07500
C1799       C  0.70302286  0.78485382  0.72393135    -0.02100
C1800       C  0.66980172  0.76940047  0.73675714     0.04700
N1801       N  0.66780096  0.76640773  0.76418820     0.67300
H1802       H  0.61268773  0.74447301  0.73279052     0.16200
H1803       H  0.72892984  0.79818421  0.68659934     0.15900
N1804       N  0.67384453  0.77637782  0.65473471     0.75000
O1805       O  0.66771855  0.79064889  0.77753207    -0.38500
O1806       O  0.66144686  0.73761787  0.77479095    -0.38400
O1807       O  0.65559354  0.78707768  0.64263627    -0.39100
O1808       O  0.69686947  0.77215306  0.64265799    -0.39200
C1809       C  0.35317025  0.56720830  0.88802311    -0.11500
C1810       C  0.37381186  0.57093488  0.91010622     0.05500
C1811       C  0.35612216  0.55063215  0.93226374    -0.06800
C1812       C  0.31839146  0.53090202  0.93293645    -0.07500
C1813       C  0.29788100  0.52935690  0.91145507    -0.02100
C1814       C  0.31550222  0.54652448  0.88845341     0.04700
N1815       N  0.29554789  0.54591523  0.86614998     0.67300
H1816       H  0.36624237  0.58209871  0.87070691     0.16200
H1817       H  0.30494670  0.51726847  0.95055022     0.15900
N1818       N  0.37581525  0.55114933  0.95464915     0.75000
O1819       O  0.27489931  0.55863909  0.86725501    -0.38500
O1820       O  0.30152625  0.53630359  0.84467452    -0.38400
O1821       O  0.36946708  0.56052505  0.97608973    -0.39100
O1822       O  0.39443375  0.53615556  0.95394688    -0.39200
C1823       C  0.08918577  0.29881483  0.94312184    -0.11500
C1824       C  0.09381051  0.29637030  0.96984013     0.05500
C1825       C  0.12021548  0.32704785  0.98288864    -0.06800
C1826       C  0.13910022  0.35966281  0.96934817    -0.07500
C1827       C  0.13223846  0.36235298  0.94312298    -0.02100
C1828       C  0.10819836  0.33121072  0.92974526     0.04700
N1829       N  0.10039525  0.33278005  0.90310887     0.67300
H1830       H  0.06964562  0.27543284  0.93258960     0.16200
H1831       H  0.15712746  0.38371977  0.97987926     0.15900
N1832       N  0.11910369  0.33223493  0.51325519     0.75000
O1833       O  0.12530066  0.34456680  0.88660994    -0.38500
O1834       O  0.06859380  0.32241702  0.89600109    -0.38400
O1835       O  0.14780756  0.35328178  0.52498593    -0.39100
O1836       O  0.09023764  0.31554028  0.52590949    -0.39200
C1837       C  0.17592624  0.47488234  0.77644908    -0.11500
C1838       C  0.16048134  0.49338827  0.76479264     0.05500
C1839       C  0.14269117  0.50614587  0.78044157    -0.06800
C1840       C  0.14126828  0.50054720  0.80716108    -0.07500
C1841       C  0.15758770  0.48279559  0.81885494    -0.02100
C1842       C  0.17396045  0.46876503  0.80299570     0.04700
N1843       N  0.18899878  0.44854156  0.81336359     0.67300
H1844       H  0.18920731  0.46431007  0.76476119     0.16200
H1845       H  0.12842953  0.51150126  0.81896919     0.15900
N1846       N  0.12798147  0.52665337  0.76991772     0.75000
O1847       O  0.16837094  0.41778136  0.82239086    -0.38500
O1848       O  0.22147001  0.45817674  0.80896408    -0.38400
O1849       O  0.09749304  0.52075493  0.77719063    -0.39100
O1850       O  0.14745882  0.55390926  0.75638705    -0.39200
C1851       C  0.13559397  0.45842795  0.55595312    -0.11500
C1852       C  0.16487581  0.48745088  0.56825251     0.05500
C1853       C  0.18671994  0.51884282  0.55381505    -0.06800
C1854       C  0.17932726  0.52017299  0.52781103    -0.07500
C1855       C  0.15123058  0.49070568  0.51523218    -0.02100
C1856       C  0.12864752  0.45978114  0.52967305     0.04700
N1857       N  0.09942745  0.42912952  0.51784216     0.67300
H1858       H  0.11785537  0.43453566  0.56677653     0.16200
H1859       H  0.19693775  0.54418162  0.51703486     0.15900
N1860       N  0.21725925  0.54937443  0.56485881     0.75000
O1861       O  0.10513804  0.40707566  0.50603180    -0.38500
O1862       O  0.06753453  0.42164120  0.52212316    -0.38400
O1863       O  0.24296487  0.54654453  0.57384030    -0.39100
O1864       O  0.22123842  0.58002222  0.56175593    -0.39200
C1865       C  0.36273663  0.55958116  0.68671628    -0.11500
C1866       C  0.38046139  0.57475763  0.66344587     0.05500
C1867       C  0.36005892  0.56780307  0.64065800    -0.06800
C1868       C  0.32257548  0.54911364  0.64191857    -0.07500
C1869       C  0.30462488  0.53621384  0.66544566    -0.02100
C1870       C  0.32502969  0.54028008  0.68789812     0.04700
N1871       N  0.30808922  0.52792034  0.71239697     0.67300
H1872       H  0.37807049  0.56473925  0.70435824     0.16200
H1873       H  0.30738885  0.54531776  0.62436731     0.15900
N1874       N  0.37711407  0.58025682  0.61613338     0.75000
O1875       O  0.30033668  0.49733490  0.72027148    -0.38500
O1876       O  0.30559719  0.54926440  0.72758041    -0.38400
O1877       O  0.39791326  0.57008312  0.60760107    -0.39100
O1878       O  0.36963782  0.59954306  0.60225159    -0.39200
C1879       C  0.10958502  0.33419159  0.67989673    -0.11500
C1880       C  0.12779222  0.36447095  0.69557655     0.05500
C1881       C  0.12767346  0.35976142  0.72260173    -0.06800
C1882       C  0.10872996  0.32552727  0.73331321    -0.07500
C1883       C  0.09001263  0.29536881  0.71769202    -0.02100
C1884       C  0.09059934  0.29980492  0.69059413     0.04700
N1885       N  0.06999633  0.27011286  0.67378252     0.67300
H1886       H  0.10890611  0.33733706  0.65922013     0.16200
H1887       H  0.10844646  0.32255745  0.75407050     0.15900
N1888       N  0.14478892  0.38955109  0.73967019     0.75000
O1889       O  0.03661912  0.25032287  0.67738215    -0.38500
O1890       O  0.08371154  0.26728367  0.65307832    -0.38400
O1891       O  0.12600653  0.39978238  0.75150051    -0.39100
O1892       O  0.17676587  0.40068261  0.74673187    -0.39200
C1893       C  0.22125682  0.88834844  0.92914486    -0.11500
C1894       C  0.23406560  0.86967622  0.94351507     0.05500
C1895       C  0.22994656  0.86826878  0.97072772    -0.06800
C1896       C  0.21588099  0.88748591  0.98288345    -0.07500
C1897       C  0.20420813  0.90709548  0.96854162    -0.02100
C1898       C  0.20620842  0.90669413  0.94125930     0.04700
N1899       N  0.19554931  0.92693060  0.92557011     0.67300
H1900       H  0.22417524  0.88988595  0.90836799     0.16200
H1901       H  0.21972942  0.89395942  0.50404292     0.15900
N1902       N  0.24112703  0.84856182  0.98650179     0.75000
O1903       O  0.21325157  0.96057540  0.92638130    -0.38500
O1904       O  0.17163308  0.91149357  0.90855657    -0.38400
O1905       O  0.26753980  0.86488078  0.00154015    -0.39100
O1906       O  0.22113844  0.81517794  0.98856809    -0.39200
C1907       C  0.23651039  0.68127501  0.89134107    -0.11500
C1908       C  0.24607344  0.70108803  0.91427189     0.05500
C1909       C  0.23715599  0.68279065  0.93815327    -0.06800
C1910       C  0.21997419  0.64544820  0.93854770    -0.07500
C1911       C  0.21140830  0.62581869  0.91560623    -0.02100
C1912       C  0.21917313  0.64398824  0.89181399     0.04700
N1913       N  0.21187199  0.62512092  0.86796790     0.67300
H1914       H  0.24325898  0.69485122  0.87288869     0.16200
H1915       H  0.21424008  0.63174647  0.95692620     0.15900
N1916       N  0.24741113  0.70164830  0.96214417     0.75000
O1917       O  0.18417846  0.61830844  0.85520179    -0.38500
O1918       O  0.23529354  0.61942533  0.85811598    -0.38400
O1919       O  0.22389017  0.69515750  0.97909577    -0.39100
O1920       O  0.28027615  0.72083798  0.96780938    -0.39200
C1921       C  0.43493014  0.79607674  0.89032136    -0.11500
C1922       C  0.42674592  0.80697493  0.91348552     0.05500
C1923       C  0.43956533  0.80094924  0.93690972    -0.06800
C1924       C  0.45816398  0.78198454  0.93669107    -0.07500
C1925       C  0.46356764  0.76847396  0.91353673    -0.02100
C1926       C  0.45346034  0.77740214  0.89014500     0.04700
N1927       N  0.46297560  0.76868829  0.86601553     0.67300
H1928       H  0.42629860  0.80164658  0.87213751     0.16200
H1929       H  0.46585794  0.77540010  0.95486141     0.15900
N1930       N  0.43107590  0.81079001  0.96110364     0.75000
O1931       O  0.43933757  0.75285170  0.84888085    -0.38500
O1932       O  0.49579035  0.78222177  0.86035813    -0.38400
O1933       O  0.39866634  0.79802858  0.96773984    -0.39100
O1934       O  0.45574133  0.82844457  0.97720575    -0.39200
C1935       C  0.35784150  0.84965805  0.80268610    -0.11500
C1936       C  0.32404573  0.84065384  0.81306980     0.05500
C1937       C  0.29645379  0.83633390  0.79635950    -0.06800
C1938       C  0.30258668  0.83972448  0.76977359    -0.07500
C1939       C  0.33621305  0.84826764  0.75930965    -0.02100
C1940       C  0.36432640  0.85423599  0.77608798     0.04700
N1941       N  0.39891791  0.86320551  0.76637082     0.67300
H1942       H  0.37955457  0.85351566  0.81538466     0.16200
H1943       H  0.28047167  0.83479271  0.75709186     0.15900
N1944       N  0.26136430  0.82582563  0.80590258     0.75000
O1945       O  0.42125964  0.89515016  0.76056681    -0.38500
O1946       O  0.40878246  0.84032302  0.76674842    -0.38400
O1947       O  0.25385312  0.84924668  0.81262179    -0.39100
O1948       O  0.23671461  0.79356746  0.80456431    -0.39200
C1949       C  0.34234750  0.87032253  0.55043261    -0.11500
C1950       C  0.32016918  0.83745925  0.56264426     0.05500
C1951       C  0.30502528  0.80584084  0.54817829    -0.06800
C1952       C  0.31233543  0.80740703  0.52188449    -0.07500
C1953       C  0.33419481  0.84021138  0.50930185    -0.02100
C1954       C  0.34969492  0.87193921  0.52395488     0.04700
N1955       N  0.37268240  0.90586903  0.51232417     0.67300
H1956       H  0.35506160  0.89470159  0.56168094     0.16200
H1957       H  0.29981390  0.78264502  0.51108820     0.15900
N1958       N  0.28121192  0.77205179  0.55986025     0.75000
O1959       O  0.36085019  0.92660270  0.50755615    -0.38500
O1960       O  0.40595075  0.91722055  0.51049120    -0.38400
O1961       O  0.25230195  0.76663737  0.57010116    -0.39100
O1962       O  0.28731120  0.74659994  0.55783845    -0.39200
C1963       C  0.24194723  0.87598364  0.71888387    -0.11500
C1964       C  0.24325192  0.87763539  0.69176550     0.05500
C1965       C  0.22853710  0.89580955  0.67886707    -0.06800
C1966       C  0.21248951  0.91143725  0.69310107    -0.07500
C1967       C  0.21149051  0.91009596  0.72025644    -0.02100
C1968       C  0.22649537  0.89217020  0.73319182     0.04700
N1969       N  0.22602279  0.88991748  0.76070233     0.67300
H1970       H  0.25376045  0.86257033  0.72917679     0.16200
H1971       H  0.20154064  0.92561018  0.68277394     0.15900
N1972       N  0.22960669  0.89855791  0.65141153     0.75000
O1973       O  0.19644757  0.87361374  0.77255720    -0.38500
O1974       O  0.25509602  0.90136475  0.77298864    -0.38400
O1975       O  0.20522928  0.87387848  0.63811092    -0.39100
O1976       O  0.25198980  0.92749577  0.64072072    -0.39200
C1977       C  0.24094191  0.68208144  0.64099005    -0.11500
C1978       C  0.24277741  0.70117546  0.66326183     0.05500
C1979       C  0.22311882  0.68189442  0.68532837    -0.06800
C1980       C  0.20376412  0.64428658  0.68492179    -0.07500
C1981       C  0.20404973  0.62541151  0.66305417    -0.02100
C1982       C  0.22165934  0.64480036  0.64052993     0.04700
N1983       N  0.22035122  0.62700279  0.61694408     0.67300
H1984       H  0.25473703  0.69624468  0.62361184     0.16200
H1985       H  0.19058049  0.62986151  0.70236644     0.15900
N1986       N  0.22456905  0.69976449  0.70884916     0.75000
O1987       O  0.19041019  0.60447744  0.60736600    -0.38500
O1988       O  0.24885578  0.63613991  0.60446048    -0.38400
O1989       O  0.19583910  0.69479281  0.71911249    -0.39100
O1990       O  0.25364197  0.71578876  0.72135440    -0.39200
C1991       C  0.44680645  0.80527804  0.68184985    -0.11500
C1992       C  0.43067545  0.80695843  0.65875741     0.05500
C1993       C  0.43480336  0.79061381  0.63646484    -0.06800
C1994       C  0.45172396  0.77035680  0.63820901    -0.07500
C1995       C  0.46569977  0.76655011  0.66163628    -0.02100
C1996       C  0.46405443  0.78511272  0.68351850     0.04700
N1997       N  0.47662117  0.78105378  0.70809132     0.67300
H1998       H  0.44359101  0.81729840  0.69918653     0.16200
H1999       H  0.45370571  0.75723116  0.62104562     0.15900
N2000       N  0.42152494  0.79399277  0.61192098     0.75000
O2001       O  0.50262496  0.80760978  0.71884231    -0.38500
O2002       O  0.45888966  0.75226773  0.72047031    -0.38400
O2003       O  0.43212304  0.82452478  0.60246814    -0.39100
O2004       O  0.40138517  0.76654952  0.59879536    -0.39200
C2005       C  0.56184358  0.54063662  0.88726260    -0.11500
C2006       C  0.57832129  0.55028465  0.86276376     0.05500
C2007       C  0.57935576  0.57955619  0.84995051    -0.06800
C2008       C  0.56615771  0.59935726  0.86215865    -0.07500
C2009       C  0.55104964  0.59068808  0.88700744    -0.02100
C2010       C  0.54824785  0.56044037  0.89936214     0.04700
N2011       N  0.53383496  0.55080709  0.92478656     0.67300
H2012       H  0.56091631  0.51854204  0.89769756     0.16200
H2013       H  0.56763427  0.62180615  0.85184591     0.15900
N2014       N  0.59387823  0.58983046  0.82454162     0.75000
O2015       O  0.50233255  0.52497826  0.92806081    -0.38500
O2016       O  0.55396405  0.56522017  0.94402237    -0.38400
O2017       O  0.57729732  0.57008495  0.80561288    -0.39100
O2018       O  0.62065758  0.62048473  0.82062666    -0.39200
C2019       C  0.75850447  0.63223047  0.78202456    -0.11500
C2020       C  0.75906332  0.62986757  0.80910315     0.05500
C2021       C  0.77894023  0.66142725  0.82344102    -0.06800
C2022       C  0.79445693  0.69464973  0.81082740    -0.07500
C2023       C  0.79103045  0.69693434  0.78398153    -0.02100
C2024       C  0.77434476  0.66535609  0.76941626     0.04700
N2025       N  0.76986893  0.66642416  0.74219941     0.67300
H2026       H  0.74341875  0.60814776  0.77068900     0.16200
H2027       H  0.80744502  0.71885457  0.82224798     0.15900
N2028       N  0.78080100  0.66038014  0.85089593     0.75000
O2029       O  0.78592546  0.65635541  0.72707356    -0.38500
O2030       O  0.74662668  0.67323124  0.73343705    -0.38400
O2031       O  0.81044180  0.66938627  0.86169848    -0.39100
O2032       O  0.75413987  0.65497109  0.86437891    -0.39200
C2033       C  0.69793724  0.51094086  0.97717166    -0.11500
C2034       C  0.66884504  0.51105723  0.98960237     0.05500
C2035       C  0.64298258  0.51353840  0.97446831    -0.06800
C2036       C  0.64581840  0.51427754  0.94759921    -0.07500
C2037       C  0.67467635  0.51373970  0.93539358    -0.02100
C2038       C  0.70123410  0.51267574  0.95037929     0.04700
N2039       N  0.73030152  0.51084317  0.93867782     0.67300
H2040       H  0.71828343  0.50907846  0.98824351     0.16200
H2041       H  0.62533986  0.51540642  0.93613217     0.15900
N2042       N  0.61421553  0.51609779  0.98595961     0.75000
O2043       O  0.75746705  0.53900400  0.93067263    -0.38500
O2044       O  0.73145403  0.48241615  0.94023209    -0.38400
O2045       O  0.57436796  0.48978004  0.48119372    -0.39100
O2046       O  0.58242799  0.49016944  0.98449437    -0.39200
C2047       C  0.66352845  0.53491520  0.72781721    -0.11500
C2048       C  0.65885566  0.50401253  0.74015568     0.05500
C2049       C  0.66183194  0.47819046  0.72558480    -0.06800
C2050       C  0.66924255  0.48351674  0.69937236    -0.07500
C2051       C  0.67347804  0.51407387  0.68686159    -0.02100
C2052       C  0.67064543  0.54010515  0.70134541     0.04700
N2053       N  0.67367556  0.57124811  0.68944972     0.67300
H2054       H  0.66192911  0.55532234  0.73877694     0.16200
H2055       H  0.67109672  0.46306325  0.68866173     0.15900
N2056       N  0.65622481  0.44572184  0.73687160     0.75000
O2057       O  0.64761247  0.56892221  0.67670028    -0.38500
O2058       O  0.69991848  0.60162325  0.69490098    -0.38400
O2059       O  0.62508817  0.41862222  0.73676670    -0.39100
O2060       O  0.68290342  0.44217785  0.74203972    -0.39200
C2061       C  0.54982273  0.58313873  0.61083661    -0.11500
C2062       C  0.54771889  0.58429844  0.63792769     0.05500
C2063       C  0.55713562  0.56329388  0.65307818    -0.06800
C2064       C  0.57165978  0.54424971  0.64107035    -0.07500
C2065       C  0.57718656  0.54618855  0.61419472    -0.02100
C2066       C  0.56475918  0.56449302  0.59895310     0.04700
N2067       N  0.57002918  0.56732106  0.57160380     0.67300
H2068       H  0.54211131  0.59815099  0.59932426     0.16200
H2069       H  0.58097993  0.53039131  0.65266100     0.15900
N2070       N  0.55514965  0.56319697  0.68067929     0.75000
O2071       O  0.54372344  0.55893380  0.55677713    -0.38500
O2072       O  0.60145714  0.58224762  0.56242688    -0.38400
O2073       O  0.54199056  0.53410615  0.69286664    -0.39100
O2074       O  0.57071808  0.59223260  0.69299349    -0.39200
C2075       C  0.77442723  0.70239530  0.56340983    -0.11500
C2076       C  0.78280845  0.70570221  0.53700913     0.05500
C2077       C  0.78073869  0.67650419  0.52372289    -0.06800
C2078       C  0.76878698  0.64414797  0.53686238    -0.07500
C2079       C  0.75806540  0.64011570  0.56295154    -0.02100
C2080       C  0.76253057  0.67023084  0.57657938     0.04700
N2081       N  0.75521699  0.66872956  0.60367540     0.67300
H2082       H  0.77731107  0.72522995  0.57399801     0.16200
H2083       H  0.76528572  0.62131454  0.52597340     0.15900
N2084       N  0.78764145  0.67828012  0.49658741     0.75000
O2085       O  0.76841763  0.65579004  0.61903592    -0.38500
O2086       O  0.73936947  0.68418307  0.61262614    -0.38400
O2087       O  0.80742595  0.66708379  0.48771481    -0.39100
O2088       O  0.77087577  0.68729861  0.48121152    -0.39200
C2089       C  0.54991574  0.34837174  0.85760910    -0.11500
C2090       C  0.56699868  0.36840268  0.83538886     0.05500
C2091       C  0.56291239  0.35008122  0.81195997    -0.06800
C2092       C  0.54559782  0.31283926  0.81183514    -0.07500
C2093       C  0.53132521  0.29279325  0.83439653    -0.02100
C2094       C  0.53235651  0.31075090  0.85741204     0.04700
N2095       N  0.51879457  0.29172329  0.88114349     0.67300
H2096       H  0.55278282  0.36197801  0.87571248     0.16200
H2097       H  0.54381943  0.29937171  0.79383985     0.15900
N2098       N  0.57687545  0.36887781  0.78814994     0.75000
O2099       O  0.53080243  0.27251607  0.88972053    -0.38500
O2100       O  0.49916232  0.29838264  0.89539163    -0.38400
O2101       O  0.59337508  0.35949250  0.77286290    -0.39100
O2102       O  0.56980675  0.39259164  0.78126025    -0.39200
C2103       C  0.42732140  0.00320780  0.84132539    -0.11500
C2104       C  0.45593589  0.03109470  0.85477390     0.05500
C2105       C  0.46392625  0.02409386  0.87993735    -0.06800
C2106       C  0.44184964  0.99072434  0.89152737    -0.07500
C2107       C  0.41190405  0.96375516  0.87859447    -0.02100
C2108       C  0.40549418  0.96993047  0.85283763     0.04700
N2109       N  0.37725960  0.94251957  0.83779677     0.67300
H2110       H  0.42095077  0.00748642  0.82191801     0.16200
H2111       H  0.44765082  0.98626550  0.91105235     0.15900
N2112       N  0.49326839  0.05093466  0.89456229     0.75000
O2113       O  0.34700579  0.94051874  0.83688445    -0.38500
O2114       O  0.38498089  0.92636849  0.82108954    -0.38400
O2115       O  0.48719176  0.06219135  0.91526346    -0.39100
O2116       O  0.52509029  0.05933579  0.88892374    -0.39200
C2117       C  0.30389214  0.08952433  0.80625766    -0.11500
C2118       C  0.30028503  0.08532039  0.77932758     0.05500
C2119       C  0.33134375  0.10125529  0.76394230    -0.06800
C2120       C  0.36534679  0.11865222  0.77568517    -0.07500
C2121       C  0.36910235  0.12138629  0.80272213    -0.02100
C2122       C  0.33792562  0.10798276  0.81799695     0.04700
N2123       N  0.34033441  0.10996918  0.84546406     0.67300
H2124       H  0.28010076  0.07717315  0.81832002     0.16200
H2125       H  0.38904063  0.12868970  0.76362247     0.15900
N2126       N  0.32880449  0.09673216  0.73660663     0.75000
O2127       O  0.34731166  0.13851405  0.85672658    -0.38500
O2128       O  0.33100477  0.08209927  0.85852459    -0.38400
O2129       O  0.32108016  0.11586302  0.72277397    -0.39100
O2130       O  0.33293526  0.07268961  0.72634593    -0.39200
C2131       C  0.47933339  0.17104527  0.97082158    -0.11500
C2132       C  0.50000640  0.15801688  0.98257456     0.05500
C2133       C  0.51645078  0.14382610  0.96698706    -0.06800
C2134       C  0.51316100  0.14430430  0.94019230    -0.07500
C2135       C  0.49394368  0.15896766  0.92837906    -0.02100
C2136       C  0.47627939  0.17175289  0.94406286     0.04700
N2137       N  0.45645194  0.18693343  0.93325179     0.67300
H2138       H  0.46579964  0.18142105  0.98249312     0.16200
H2139       H  0.52670888  0.13394591  0.92854050     0.15900
N2140       N  0.53792961  0.13044892  0.97783806     0.75000
O2141       O  0.42266045  0.17071007  0.93538982    -0.38500
O2142       O  0.47292082  0.21867593  0.92512884    -0.38400
O2143       O  0.53051544  0.09895551  0.97300367    -0.39100
O2144       O  0.56699089  0.15145071  0.98919034    -0.39200
C2145       C  0.47182562  0.13663595  0.69090084    -0.11500
C2146       C  0.49605953  0.16867563  0.67856884     0.05500
C2147       C  0.52385528  0.19645317  0.69299671    -0.06800
C2148       C  0.52697397  0.19160787  0.71924959    -0.07500
C2149       C  0.50265959  0.15964393  0.73174319    -0.02100
C2150       C  0.47509015  0.13172370  0.71718387     0.04700
N2151       N  0.45013263  0.09828639  0.72868574     0.67300
H2152       H  0.45104117  0.11468638  0.67988414     0.16200
H2153       H  0.54815441  0.21350130  0.73005174     0.15900
N2154       N  0.54863895  0.23002937  0.68141190     0.75000
O2155       O  0.41800296  0.09046444  0.73233552    -0.38500
O2156       O  0.45859180  0.07451645  0.73126325    -0.38400
O2157       O  0.53722685  0.24870587  0.67094528    -0.39100
O2158       O  0.58207607  0.24233162  0.68339471    -0.39200
C2159       C  0.55924505  0.31793923  0.60601982    -0.11500
C2160       C  0.54415367  0.30093243  0.58253901     0.05500
C2161       C  0.54261933  0.32157732  0.56195671    -0.06800
C2162       C  0.55817396  0.35877022  0.56480875    -0.07500
C2163       C  0.57549202  0.37587653  0.58783007    -0.02100
C2164       C  0.57434490  0.35474445  0.60898312     0.04700
N2165       N  0.58874567  0.37032706  0.63363283     0.67300
H2166       H  0.55943859  0.30250530  0.62239368     0.16200
H2167       H  0.55890625  0.37453962  0.54836503     0.15900
N2168       N  0.52783875  0.30578530  0.53751386     0.75000
O2169       O  0.57777567  0.38887005  0.64483364    -0.38500
O2170       O  0.61020837  0.36321797  0.64516592    -0.38400
O2171       O  0.50039071  0.30585841  0.52905927    -0.39100
O2172       O  0.54498124  0.29636895  0.52290274    -0.39200
C2173       C  0.41975968  0.97167373  0.60627625    -0.11500
C2174       C  0.42154000  0.96841525  0.63320133     0.05500
C2175       C  0.44476424  0.99914725  0.64762718    -0.06800
C2176       C  0.46397800  0.03241900  0.63499855    -0.07500
C2177       C  0.46062587  0.03575362  0.60826927    -0.02100
C2178       C  0.43912960  0.00477529  0.59378596     0.04700
N2179       N  0.43425310  0.00696515  0.56673073     0.67300
H2180       H  0.40222223  0.94833822  0.59485015     0.16200
H2181       H  0.47968295  0.05629162  0.64642056     0.15900
N2182       N  0.44672671  0.99778730  0.67516229     0.75000
O2183       O  0.45907460  0.01229440  0.55126801    -0.38500
O2184       O  0.40394085  0.99984823  0.55809398    -0.38400
O2185       O  0.47676719  0.01481438  0.68636956    -0.39100
O2186       O  0.41831591  0.98364356  0.68847114    -0.39200
C2187       C  0.30627879  0.07603522  0.55483482    -0.11500
C2188       C  0.30110838  0.08455446  0.52959653     0.05500
C2189       C  0.32974497  0.11450070  0.51749503    -0.06800
C2190       C  0.36318068  0.13380362  0.53020007    -0.07500
C2191       C  0.36887919  0.12381950  0.55494289    -0.02100
C2192       C  0.33925682  0.09534167  0.56764286     0.04700
N2193       N  0.34199798  0.08547020  0.59354731     0.67300
H2194       H  0.28420699  0.05407598  0.56499505     0.16200
H2195       H  0.38535734  0.15549026  0.51994888     0.15900
N2196       N  0.32618544  0.12422209  0.49178437     0.75000
O2197       O  0.35056490  0.10793582  0.61150223    -0.38500
O2198       O  0.33131628  0.05328280  0.59899809    -0.38400
O2199       O  0.33097379  0.15489709  0.48724155    -0.39100
O2200       O  0.32228431  0.10374290  0.47326314    -0.39200
C2201       C  0.91920059  0.21595116  0.80724195    -0.11500
C2202       C  0.91479226  0.20809467  0.78068078     0.05500
C2203       C  0.88959861  0.21329774  0.76687044    -0.06800
C2204       C  0.87157917  0.22864599  0.77932986    -0.07500
C2205       C  0.87780688  0.23854409  0.80551012    -0.02100
C2206       C  0.90078194  0.23068675  0.81978195     0.04700
N2207       N  0.90776698  0.24001576  0.84650137     0.67300
H2208       H  0.93796629  0.21146590  0.81827137     0.16200
H2209       H  0.85465951  0.23538123  0.76799913     0.15900
N2210       N  0.88474192  0.20665048  0.73976209     0.75000
O2211       O  0.88200577  0.22888732  0.86225553    -0.38500
O2212       O  0.93967115  0.25635091  0.85481745    -0.38400
O2213       O  0.85390440  0.18525249  0.73092096    -0.39100
O2214       O  0.91012157  0.22543053  0.72443682    -0.39200
C2215       C  0.80234718  0.44714870  0.85114989    -0.18700
C2216       C  0.79975814  0.42759752  0.82875781     0.05500
C2217       C  0.77915677  0.42861158  0.80784467    -0.06800
C2218       C  0.75918977  0.44578417  0.81065102    -0.07500
C2219       C  0.75995279  0.46347231  0.83351271    -0.02100
C2220       C  0.78298436  0.46526202  0.85355798     0.04700
N2221       N  0.78519462  0.48324817  0.87709643     0.67300
H2222       H  0.81815322  0.44706670  0.86737154     0.16200
H2223       H  0.74296371  0.44545666  0.79456345     0.15900
N2224       N  0.77879315  0.41304790  0.78339980     0.75000
O2225       O  0.76528647  0.46596223  0.89579622    -0.38500
O2226       O  0.81042893  0.51489951  0.88043635    -0.38400
O2227       O  0.74991569  0.39634881  0.77073382    -0.39100
O2228       O  0.80811321  0.42038719  0.77283429    -0.39200
C2229       C  0.69305726  0.22566740  0.84988292    -0.11500
C2230       C  0.71120056  0.23977256  0.82654192     0.05500
C2231       C  0.69096577  0.23498257  0.80389905    -0.06800
C2232       C  0.65358827  0.21908170  0.80536898    -0.07500
C2233       C  0.63555506  0.20687748  0.82891737    -0.02100
C2234       C  0.65549204  0.20956084  0.85129927     0.04700
N2235       N  0.63848801  0.19943014  0.87597493     0.67300
H2236       H  0.70822507  0.22969778  0.86747360     0.16200
H2237       H  0.63852889  0.21635088  0.78793105     0.15900
N2238       N  0.70809671  0.24645933  0.77928905     0.75000
O2239       O  0.63784424  0.17395935  0.88818853    -0.38500
O2240       O  0.62760536  0.21832476  0.88674700    -0.38400
O2241       O  0.72750667  0.23457468  0.77082811    -0.39100
O2242       O  0.70176520  0.26637394  0.76517764    -0.39200
C2243       C  0.01747318  0.41002450  0.88453028    -0.11500
C2244       C  0.03417566  0.44620300  0.89139049     0.05500
C2245       C  0.02008926  0.46717702  0.88169650    -0.06800
C2246       C  0.98982964  0.45154988  0.86546177    -0.07500
C2247       C  0.97368616  0.41555647  0.85823692    -0.02100
C2248       C  0.98784589  0.39476759  0.86789145     0.04700
N2249       N  0.97157918  0.35770862  0.86170465     0.67300
H2250       H  0.02841701  0.39375767  0.89123331     0.16200
H2251       H  0.97841078  0.46742157  0.85882721     0.15900
N2252       N  0.03575011  0.50408639  0.88854591     0.75000
O2253       O  0.98119502  0.34822997  0.84170106    -0.38500
O2254       O  0.95130323  0.33447940  0.87784316    -0.38400
O2255       O  0.04070672  0.52697417  0.87156237    -0.39100
O2256       O  0.04214058  0.51350627  0.91185599    -0.39200
C2257       C  0.86850998  0.32689700  0.96767016    -0.11500
C2258       C  0.85469899  0.34639725  0.97975446     0.05500
C2259       C  0.83478745  0.35783692  0.96518817    -0.06800
C2260       C  0.82887926  0.34956976  0.93899340    -0.07500
C2261       C  0.84255337  0.33004742  0.92672796    -0.02100
C2262       C  0.86223196  0.31821483  0.94136650     0.04700
N2263       N  0.87655119  0.29807919  0.92980970     0.67300
H2264       H  0.88288445  0.31702127  0.97895486     0.16200
H2265       H  0.81440784  0.35952585  0.92790416     0.15900
N2266       N  0.82165043  0.37910475  0.97660645     0.75000
O2267       O  0.90975701  0.30902666  0.93146620    -0.38500
O2268       O  0.85546428  0.26670861  0.92206499    -0.38400
O2269       O  0.85599927  0.42455680  0.47595378    -0.39100
O2270       O  0.78926574  0.37082597  0.97357701    -0.39200
C2271       C  0.86836345  0.32632849  0.71672800    -0.11500
C2272       C  0.85198428  0.34293563  0.72961087     0.05500
C2273       C  0.83097651  0.35343893  0.71544584    -0.06800
C2274       C  0.82655803  0.34728782  0.68903014    -0.07500
C2275       C  0.84308413  0.33107787  0.67595339    -0.02100
C2276       C  0.86425040  0.32051533  0.68998079     0.04700
N2277       N  0.88314732  0.30568491  0.67723781     0.67300
H2278       H  0.88423252  0.31769398  0.72747099     0.16200
H2279       H  0.81075140  0.35621657  0.67850615     0.15900
N2280       N  0.81564134  0.37233440  0.72736700     0.75000
O2281       O  0.91024802  0.32539255  0.66352999    -0.38500
O2282       O  0.87542468  0.27409488  0.68207333    -0.38400
O2283       O  0.83301890  0.40600102  0.72716443    -0.39100
O2284       O  0.78254756  0.35607578  0.73273734    -0.39200
C2285       C  0.89667358  0.26281169  0.52201700    -0.11500
C2286       C  0.88622886  0.25647727  0.54808714     0.05500
C2287       C  0.88658378  0.22812055  0.56098452    -0.06800
C2288       C  0.89934996  0.20824067  0.54811235    -0.07500
C2289       C  0.91234295  0.21633919  0.52256723    -0.02100
C2290       C  0.90913825  0.24283812  0.50901833     0.04700
N2291       N  0.91801743  0.24958449  0.48214700     0.67300
H2292       H  0.89495192  0.28352914  0.51153019     0.16200
H2293       H  0.90156112  0.18804289  0.55892839     0.15900
N2294       N  0.87700140  0.22104893  0.58763622     0.75000
O2295       O  0.90670184  0.22386709  0.46650934    -0.38500
O2296       O  0.93301632  0.28106911  0.47350161    -0.38400
O2297       O  0.85422629  0.18987645  0.59483334    -0.39100
O2298       O  0.89450022  0.24473314  0.60432092    -0.39200
C2299       C  0.79465006  0.44199112  0.60639889    -0.11500
C2300       C  0.80119894  0.43264906  0.58192409     0.05500
C2301       C  0.79020450  0.44345178  0.55976341    -0.06800
C2302       C  0.77143647  0.46177918  0.56250862    -0.07500
C2303       C  0.76309552  0.46931222  0.58697634    -0.02100
C2304       C  0.77550504  0.45997584  0.60908792     0.04700
N2305       N  0.76828281  0.46797831  0.63432988     0.67300
H2306       H  0.80287410  0.43375830  0.62358401     0.16200
H2307       H  0.76201894  0.46886239  0.54536553     0.15900
N2308       N  0.79734989  0.43549861  0.53442112     0.75000
O2309       O  0.74671839  0.44311530  0.64896651    -0.38500
O2310       O  0.78597189  0.49944175  0.64286443    -0.38400
O2311       O  0.77241334  0.42167645  0.51795216    -0.39100
O2312       O  0.82915314  0.44509203  0.52778158    -0.39200
C2313       C  0.69431838  0.23066860  0.60168851    -0.11500
C2314       C  0.71190563  0.24193374  0.57787493     0.05500
C2315       C  0.69111143  0.23096473  0.55505768    -0.06800
C2316       C  0.65341215  0.21054972  0.55642689    -0.07500
C2317       C  0.63574635  0.20111195  0.58028054    -0.02100
C2318       C  0.65657703  0.21060150  0.60308447     0.04700
N2319       N  0.63963438  0.20083727  0.62782460     0.67300
H2320       H  0.70985051  0.23893569  0.61936130     0.16200
H2321       H  0.63783793  0.20379002  0.53878554     0.15900
N2322       N  0.70794406  0.24125478  0.53034324     0.75000
O2323       O  0.61961094  0.16834948  0.63355864    -0.38500
O2324       O  0.64625534  0.22452705  0.64449858    -0.38400
O2325       O  0.72520029  0.22711482  0.52167284    -0.39100
O2326       O  0.70319226  0.26230398  0.51632111    -0.39200
C2327       C  0.97834872  0.43878331  0.63506168    -0.11500
C2328       C  0.97560834  0.42977188  0.60862814     0.05500
C2329       C  0.00696640  0.43561948  0.59574268    -0.06800
C2330       C  0.03908665  0.44784456  0.60945726    -0.07500
C2331       C  0.04127847  0.45491699  0.63606837    -0.02100
C2332       C  0.01073955  0.45117814  0.64877107     0.04700
N2333       N  0.01126492  0.45676343  0.67592042     0.67300
H2334       H  0.95472434  0.43430303  0.64561680     0.16200
H2335       H  0.06257060  0.45136711  0.59915701     0.15900
N2336       N  0.00663308  0.42863307  0.56882060     0.75000
O2337       O  0.01332192  0.48495290  0.68444109    -0.38500
O2338       O  0.00539627  0.43181731  0.69126569    -0.38400
O2339       O  0.00988424  0.45179807  0.55263571    -0.39100
O2340       O  0.00800988  0.40168066  0.56136095    -0.39200
loop_ 
_geom_bond_atom_site_label_1 
_geom_bond_atom_site_label_2 
_geom_bond_distance 
_geom_bond_site_symmetry_2 
_ccdc_geom_bond_type 
Zn1           O5   1.926       .  S
Zn1           O6   1.996       .  S
Zn1          O10   2.013       .  S
Zn1          O17   1.957       .  S
Zn2           O5   1.929       .  S
Zn2           O7   1.986       .  S
Zn2           O9   2.010       .  S
Zn2          O13   2.010       .  S
Zn3           O5   1.938       .  S
Zn3           O8   2.051       .  S
Zn3          O11   2.036       .  S
Zn3          O14   1.968       .  S
Zn4           O5   1.969       .  S
Zn4          O12   2.064       .  S
Zn4          O15   2.055       .  S
Zn4          O16   2.057       .  S
O6           C18   1.271       .  A
O7           C19   1.272       .  A
O8           C20   1.279       .  A
O9           C18   1.273       .  A
O10          C20   1.272       .  A
O11          C19   1.277       .  A
O12          C21   1.280       .  A
O13          C22   1.272       .  A
O14          C21   1.269       .  A
O15          C22   1.278       .  A
O16          C23   1.279       .  A
O17          C23   1.268       .  A
C18        C1130   1.470       .  S
C19        C2258   1.472   1_554  S
C20        C1158   1.499       .  S
C21        C1116   1.482       .  S
C22        C1144   1.482       .  S
C23        C1105   1.469       .  S
Zn24         O28   1.941       .  S
Zn24         O29   2.028       .  S
Zn24         O33   2.019       .  S
Zn24         O40   1.988       .  S
Zn25         O28   1.947       .  S
Zn25         O30   2.039       .  S
Zn25         O32   2.000       .  S
Zn25         O36   1.965       .  S
Zn26         O28   1.919       .  S
Zn26         O31   1.989       .  S
Zn26         O34   2.031       .  S
Zn26         O37   1.977       .  S
Zn27         O28   1.988       .  S
Zn27         O35   2.057       .  S
Zn27         O38   2.075       .  S
Zn27         O39   2.101       .  S
O29          C41   1.276       .  A
O30          C42   1.273       .  A
O31          C43   1.272       .  A
O32          C41   1.271       .  A
O33          C43   1.276       .  A
O34          C42   1.275       .  A
O35          C44   1.278       .  A
O36          C45   1.271       .  A
O37          C44   1.271       .  A
O38          C45   1.283       .  A
O39          C46   1.282       .  A
O40          C46   1.268       .  A
C41        C1077   1.473       .  S
C42        C1046   1.497       .  S
C43        C1102   1.475       .  S
C44        C1060   1.481       .  S
C45        C1091   1.485       .  S
C46        C1035   1.490       .  S
Zn47         O51   1.920       .  S
Zn47         O52   2.005       .  S
Zn47         O56   1.983       .  S
Zn47         O63   2.012       .  S
Zn48         O51   1.969       .  S
Zn48         O53   2.082       .  S
Zn48         O55   2.064       .  S
Zn48         O59   2.060       .  S
Zn49         O51   1.934       .  S
Zn49         O54   2.017       .  S
Zn49         O57   1.989       .  S
Zn49         O60   2.043       .  S
Zn50         O51   1.938       .  S
Zn50         O58   2.016       .  S
Zn50         O61   1.955       .  S
Zn50         O62   2.017       .  S
O52          C64   1.273       .  A
O53          C65   1.281       .  A
O54          C66   1.276       .  A
O55          C64   1.279       .  A
O56          C66   1.271       .  A
O57          C65   1.270       .  A
O58          C67   1.272       .  A
O59          C68   1.282       .  A
O60          C67   1.277       .  A
O61          C68   1.270       .  A
O62          C69   1.272       .  A
O63          C69   1.274       .  A
C64        C1147   1.488       .  S
C65        C1007   1.483       .  S
C66         C976   1.479       .  S
C67        C1021   1.495       .  S
C68        C2132   1.478   1_554  S
C69         C990   1.480       .  S
Zn70         O74   1.910       .  S
Zn70         O75   1.988       .  S
Zn70         O79   2.011       .  S
Zn70         O86   1.987       .  S
Zn71         O74   1.927       .  S
Zn71         O76   2.025       .  S
Zn71         O78   2.015       .  S
Zn71         O82   1.985       .  S
Zn72         O74   1.940       .  S
Zn72         O77   2.015       .  S
Zn72         O80   1.995       .  S
Zn72         O83   1.968       .  S
Zn73         O74   1.967       .  S
Zn73         O81   2.036       .  S
Zn73         O84   2.070       .  S
Zn73         O85   2.042       .  S
O75          C87   1.272       .  A
O76          C88   1.277       .  A
O77          C89   1.272       .  A
O78          C87   1.275       .  A
O79          C89   1.274       .  A
O80          C88   1.270       .  A
O81          C90   1.279       .  A
O82          C91   1.269       .  A
O83          C90   1.271       .  A
O84          C91   1.278       .  A
O85          C92   1.276       .  A
O86          C92   1.272       .  A
C87         C979   1.477       .  S
C88         C934   1.482       .  S
C89        C1063   1.481       .  S
C90         C965   1.481       .  S
C91         C951   1.478       .  S
C92         C923   1.477       .  S
Zn93         O97   1.927       .  S
Zn93         O98   1.991       .  S
Zn93        O102   1.954       .  S
Zn93        O109   1.990       .  S
Zn94         O97   1.934       .  S
Zn94         O99   1.977       .  S
Zn94        O101   2.023       .  S
Zn94        O105   2.013       .  S
Zn95         O97   1.977       .  S
Zn95        O100   2.053       .  S
Zn95        O103   2.067       .  S
Zn95        O106   2.052       .  S
Zn96         O97   1.916       .  S
Zn96        O104   1.978       .  S
Zn96        O107   1.976       .  S
Zn96        O108   2.011       .  S
O98         C110   1.269       .  A
O99         C111   1.269       .  A
O100        C112   1.280       .  A
O101        C110   1.275       .  A
O102        C112   1.268       .  A
O103        C111   1.278       .  A
O104        C113   1.270       .  A
O105        C114   1.274       .  A
O106        C113   1.276       .  A
O107        C114   1.271       .  A
O108        C115   1.272       .  A
O109        C115   1.270       .  A
C110        C909   1.485       .  S
C111        C895   1.472       .  S
C112       C2034   1.483   1_554  S
C113        C993   1.479       .  S
C114        C881   1.481       .  S
C115       C1133   1.475       .  S
Zn116       O120   1.981       .  S
Zn116       O121   2.085       .  S
Zn116       O125   2.060       .  S
Zn116       O132   2.093       .  S
Zn117       O120   1.916       .  S
Zn117       O122   1.996       .  S
Zn117       O124   1.989       .  S
Zn117       O128   1.975       .  S
Zn118       O120   1.954       .  S
Zn118       O123   1.961       .  S
Zn118       O126   2.036       .  S
Zn118       O129   2.018       .  S
Zn119       O120   1.944       .  S
Zn119       O127   2.031       .  S
Zn119       O130   2.014       .  S
Zn119       O131   1.988       .  S
O121        C133   1.280       .  A
O122        C134   1.272       .  A
O123        C135   1.271       .  A
O124        C133   1.271       .  A
O125        C135   1.282       .  A
O126        C134   1.274       .  A
O127        C136   1.276       .  A
O128        C137   1.270       .  A
O129        C136   1.272       .  A
O130        C137   1.275       .  A
O131        C138   1.269       .  A
O132        C138   1.282       .  A
C133       C1049   1.495       .  S
C134        C920   1.482       .  S
C135        C867   1.483       .  S
C136        C836   1.494       .  S
C137        C878   1.471       .  S
C138        C850   1.483       .  S
Zn139       O143   1.920       .  S
Zn139       O144   1.998       .  S
Zn139       O148   2.039       .  S
Zn139       O155   1.996       .  S
Zn140       O143   1.943       .  S
Zn140       O145   2.042       .  S
Zn140       O147   2.030       .  S
Zn140       O151   1.983       .  S
Zn141       O143   1.929       .  S
Zn141       O146   2.024       .  S
Zn141       O149   1.995       .  S
Zn141       O152   1.963       .  S
Zn142       O143   1.976       .  S
Zn142       O150   2.070       .  S
Zn142       O153   2.081       .  S
Zn142       O154   2.053       .  S
O144        C156   1.274       .  A
O145        C157   1.278       .  A
O146        C158   1.273       .  A
O147        C156   1.277       .  A
O148        C158   1.277       .  A
O149        C157   1.272       .  A
O150        C159   1.280       .  A
O151        C160   1.269       .  A
O152        C159   1.269       .  A
O153        C160   1.281       .  A
O154        C161   1.278       .  A
O155        C161   1.273       .  A
C156        C780   1.480       .  S
C157        C794   1.493       .  S
C158        C808   1.492       .  S
C159        C769   1.472       .  S
C160       C1004   1.484       .  S
C161        C822   1.479       .  S
Zn162       O166   1.907       .  S
Zn162       O167   1.995       .  S
Zn162       O171   1.959       .  S
Zn162       O178   1.998       .  S
Zn163       O166   1.934       .  S
Zn163       O168   1.949       .  S
Zn163       O170   2.059       .  S
Zn163       O174   2.050       .  S
Zn164       O166   1.976       .  S
Zn164       O169   2.065       .  S
Zn164       O172   2.079       .  S
Zn164       O175   2.069       .  S
Zn165       O166   1.904       .  S
Zn165       O173   1.968       .  S
Zn165       O176   1.973       .  S
Zn165       O177   2.000       .  S
O167        C179   1.270       .  A
O168        C180   1.266       .  A
O169        C181   1.280       .  A
O170        C179   1.280       .  A
O171        C181   1.270       .  A
O172        C180   1.282       .  A
O173        C182   1.269       .  A
O174        C183   1.279       .  A
O175        C182   1.279       .  A
O176        C183   1.270       .  A
O177        C184   1.272       .  A
O178        C184   1.271       .  A
C179        C724   1.493       .  S
C180        C937   1.489       .  S
C181       C1953   1.483       .  S
C182        C752   1.482       .  S
C183        C766   1.485       .  S
C184        C738   1.472       .  S
Zn185       O189   1.916       .  S
Zn185       O190   1.953       .  S
Zn185       O194   2.009       .  S
Zn185       O201   1.997       .  S
Zn186       O189   1.967       .  S
Zn186       O191   2.097       .  S
Zn186       O193   2.081       .  S
Zn186       O197   2.101       .  S
Zn187       O189   1.895       .  S
Zn187       O192   1.994       .  S
Zn187       O195   1.974       .  S
Zn187       O198   1.967       .  S
Zn188       O189   1.935       .  S
Zn188       O196   2.031       .  S
Zn188       O199   1.966       .  S
Zn188       O200   2.043       .  S
O190        C202   1.270       .  A
O191        C203   1.282       .  A
O192        C204   1.273       .  A
O193        C202   1.285       .  A
O194        C204   1.270       .  A
O195        C203   1.269       .  A
O196        C205   1.277       .  A
O197        C206   1.285       .  A
O198        C205   1.268       .  A
O199        C206   1.269       .  A
O200        C207   1.277       .  A
O201        C207   1.270       .  A
C202        C668   1.490       .  S
C203        C811   1.491       .  S
C204        C699   1.481       .  S
C205        C682   1.481       .  S
C206       C1161   1.491       .  S
C207        C710   1.487       .  S
Zn208       O212   1.931       .  S
Zn208       O213   1.993       .  S
Zn208       O217   1.982       .  S
Zn208       O224   1.959       .  S
Zn209       O212   1.916       .  S
Zn209       O214   1.971       .  S
Zn209       O216   2.011       .  S
Zn209       O220   1.994       .  S
Zn210       O212   1.938       .  S
Zn210       O215   2.047       .  S
Zn210       O218   2.035       .  S
Zn210       O221   1.983       .  S
Zn211       O212   1.973       .  S
Zn211       O219   2.068       .  S
Zn211       O222   2.042       .  S
Zn211       O223   2.064       .  S
O213        C225   1.269       .  A
O214        C226   1.271       .  A
O215        C227   1.279       .  A
O216        C225   1.273       .  A
O217        C227   1.268       .  A
O218        C226   1.276       .  A
O219        C228   1.279       .  A
O220        C229   1.272       .  A
O221        C228   1.270       .  A
O222        C229   1.276       .  A
O223        C230   1.281       .  A
O224        C230   1.268       .  A
C225        C741   1.474       .  S
C226       C1855   1.479       .  S
C227       C1074   1.481       .  S
C228        C657   1.478       .  S
C229        C643   1.489       .  S
C230        C671   1.473       .  S
Zn231       O235   1.917       .  S
Zn231       O236   2.021       .  S
Zn231       O240   1.979       .  S
Zn231       O247   1.972       .  S
Zn232       O235   1.907       .  S
Zn232       O237   1.974       .  S
Zn232       O239   2.013       .  S
Zn232       O243   1.966       .  S
Zn233       O235   1.938       .  S
Zn233       O238   2.051       .  S
Zn233       O241   2.055       .  S
Zn233       O244   1.963       .  S
Zn234       O235   1.979       .  S
Zn234       O242   2.080       .  S
Zn234       O245   2.043       .  S
Zn234       O246   2.068       .  S
O236        C248   1.273       .  A
O237        C249   1.270       .  A
O238        C250   1.280       .  A
O239        C248   1.272       .  A
O240        C250   1.270       .  A
O241        C249   1.280       .  A
O242        C251   1.280       .  A
O243        C252   1.270       .  A
O244        C251   1.269       .  A
O245        C252   1.277       .  A
O246        C253   1.280       .  A
O247        C253   1.271       .  A
C248        C825   1.481       .  S
C249        C615   1.478       .  S
C250        C626   1.481       .  S
C251        C892   1.497       .  S
C252        C696   1.474       .  S
C253        C598   1.480       .  S
Zn254       O258   1.914       .  S
Zn254       O259   2.033       .  S
Zn254       O263   2.009       .  S
Zn254       O270   1.998       .  S
Zn255       O258   1.917       .  S
Zn255       O260   1.971       .  S
Zn255       O262   2.015       .  S
Zn255       O266   1.992       .  S
Zn256       O258   1.958       .  S
Zn256       O261   2.038       .  S
Zn256       O264   2.059       .  S
Zn256       O267   2.073       .  S
Zn257       O258   1.932       .  S
Zn257       O265   1.981       .  S
Zn257       O268   2.056       .  S
Zn257       O269   2.043       .  S
O259        C271   1.277       .  A
O260        C272   1.269       .  A
O261        C273   1.277       .  A
O262        C271   1.272       .  A
O263        C273   1.274       .  A
O264        C272   1.280       .  A
O265        C274   1.270       .  A
O266        C275   1.271       .  A
O267        C274   1.280       .  A
O268        C275   1.281       .  A
O269        C276   1.280       .  A
O270        C276   1.274       .  A
C271        C755   1.487       .  S
C272       C1782   1.478       .  S
C273        C640   1.470       .  S
C274        C839   1.489       .  S
C275        C584   1.482       .  S
C276        C601   1.480       .  S
Zn277      O1451   1.922   1_565  S
Zn277       O282   1.968       .  S
Zn277       O286   2.021       .  S
Zn277       O293   2.001       .  S
Zn278      O1451   1.971       .  S
Zn278       O283   2.075       .  S
Zn278       O285   2.071       .  S
Zn278       O289   2.093       .  S
Zn279       O281   1.918       .  S
Zn279       O284   2.018       .  S
Zn279       O287   1.999   1_565  S
Zn279       O290   1.976   1_565  S
Zn280       O281   1.944       .  S
Zn280       O288   2.047       .  S
Zn280       O291   1.981   1_565  S
Zn280       O292   2.065       .  S
O281      Zn1447   1.917   1_554  S
O281      Zn1448   1.964   1_564  S
O282        C294   1.272   1_565  A
O283       C1465   1.281       .  A
O284       C1466   1.274       .  A
O285        C294   1.281       .  A
O286        C296   1.272       .  A
O287        C295   1.272       .  A
O288        C297   1.279       .  A
O289       C1468   1.283       .  A
O290        C297   1.271   1_545  A
O291        C298   1.270       .  A
O292       C1469   1.281   1_554  A
O293        C299   1.271       .  A
C294        C528   1.489       .  S
C295       O1453   1.280   1_554  A
C295        C573   1.483       .  S
C296       O1454   1.274       .  A
C296        C556   1.488       .  S
C297        C542   1.474       .  S
C298       O1459   1.282       .  A
C298       C1018   1.487       .  S
C299       O1462   1.280       .  A
C299        C727   1.491       .  S
Zn300       O304   1.942       .  S
Zn300       O305   2.040       .  S
Zn300       O309   1.982   1_565  S
Zn300       O316   2.059       .  S
Zn301       O304   1.909       .  S
Zn301       O306   1.998   1_565  S
Zn301       O308   1.992       .  S
Zn301       O312   2.026       .  S
Zn302       O304   1.971   1_545  S
Zn302       O307   2.068       .  S
Zn302       O310   2.045       .  S
Zn302       O313   2.069       .  S
Zn303       O304   1.919       .  S
Zn303       O311   1.967       .  S
Zn303       O314   2.020       .  S
Zn303       O315   1.981       .  S
O305        C317   1.278       .  A
O306        C318   1.274       .  A
O307        C319   1.279       .  A
O308        C317   1.272       .  A
O309        C319   1.270       .  A
O310        C318   1.277       .  A
O311        C320   1.270   1_565  A
O312        C321   1.276       .  A
O313        C320   1.280       .  A
O314        C321   1.272       .  A
O315        C322   1.270       .  A
O316        C322   1.280       .  A
C317        C531   1.476       .  S
C318        C514   1.479       .  S
C319        C948   1.484       .  S
C320        C545   1.480       .  S
C321        C503   1.482       .  S
C322        C797   1.475       .  S
Zn323       O327   1.927       .  S
Zn323       O328   2.012       .  S
Zn323       O332   1.981       .  S
Zn323       O339   2.016   1_455  S
Zn324      O1497   1.974       .  S
Zn324       O329   2.102       .  S
Zn324       O331   2.071       .  S
Zn324       O335   2.081       .  S
Zn325       O327   1.937   1_655  S
Zn325       O330   2.016       .  S
Zn325       O333   1.970   1_655  S
Zn325       O336   2.040       .  S
Zn326      O1497   1.932   1_655  S
Zn326       O334   1.993       .  S
Zn326       O337   1.959       .  S
Zn326       O338   1.986       .  S
O327      Zn1494   1.971       .  S
O327      Zn1496   1.929   1_455  S
O328        C340   1.273       .  A
O329       C1511   1.284   1_554  A
O330        C342   1.274       .  A
O331       C1510   1.280       .  A
O332        C342   1.272   1_455  A
O333        C341   1.269       .  A
O334        C343   1.269       .  A
O335        C344   1.285       .  A
O336       C1513   1.276       .  A
O337        C344   1.269   1_655  A
O338        C345   1.269       .  A
O339       C1515   1.274       .  A
C340       O1501   1.279       .  A
C340        C570   1.486       .  S
C341       O1499   1.282       .  A
C341        C654   1.482       .  S
C342        C458   1.480       .  S
C343       O1506   1.275   1_554  A
C343       C1119   1.488       .  S
C344        C475   1.484       .  S
C345       O1509   1.274   1_554  A
C345        C489   1.474       .  S
Zn346       O350   1.943       .  S
Zn346       O351   1.988   1_455  S
Zn346       O355   2.042       .  S
Zn346       O362   2.028       .  S
Zn347       O350   1.972   1_655  S
Zn347       O352   2.084       .  S
Zn347       O354   2.111       .  S
Zn347       O358   2.085       .  S
Zn348       O350   1.928       .  S
Zn348       O353   2.003       .  S
Zn348       O356   1.957       .  S
Zn348       O359   2.023       .  S
Zn349       O350   1.906       .  S
Zn349       O357   1.997       .  S
Zn349       O360   1.972   1_455  S
Zn349       O361   1.965       .  S
O351        C363   1.271       .  A
O352        C364   1.285       .  A
O353        C365   1.272       .  A
O354        C363   1.286       .  A
O355        C365   1.277       .  A
O356        C364   1.270   1_455  A
O357        C366   1.271       .  A
O358        C367   1.281       .  A
O359        C366   1.272       .  A
O360        C367   1.269       .  A
O361        C368   1.269       .  A
O362        C368   1.277       .  A
C363       C1032   1.499       .  S
C364        C472   1.491       .  S
C365        C713   1.485       .  S
C366        C517   1.482       .  S
C367        C444   1.486       .  S
C368        C461   1.475       .  S
Zn369       O373   1.967       .  S
Zn369       O374   2.054       .  S
Zn369       O378   2.050       .  S
Zn369       O385   2.061       .  S
Zn370       O373   1.918       .  S
Zn370       O375   1.996       .  S
Zn370       O377   1.970       .  S
Zn370       O381   2.003       .  S
Zn371      O1543   1.949       .  S
Zn371       O376   1.972       .  S
Zn371       O379   2.054       .  S
Zn371       O382   2.049       .  S
Zn372      O1543   1.911       .  S
Zn372       O380   1.976       .  S
Zn372       O383   2.002       .  S
Zn372       O384   1.983       .  S
O373      Zn1541   1.945       .  S
O373      Zn1542   1.907       .  S
O374        C386   1.279       .  A
O375        C387   1.272       .  A
O376        C388   1.270       .  A
O377        C386   1.269       .  A
O378       C1558   1.279       .  A
O379       C1557   1.279   1_554  A
O380        C389   1.270       .  A
O381        C390   1.271       .  A
O382        C389   1.278       .  A
O383       C1560   1.272       .  A
O384        C391   1.270       .  A
O385       C1561   1.278       .  A
C386        C419   1.468       .  S
C387       O1549   1.279       .  A
C387        C587   1.495       .  S
C388       O1548   1.278       .  A
C388        C906   1.476       .  S
C389        C433   1.482       .  S
C390       O1553   1.272       .  A
C390        C486   1.473       .  S
C391       O1555   1.277   1_554  A
C391        C559   1.483       .  S
Zn392       O396   1.930       .  S
Zn392       O397   1.990       .  S
Zn392       O401   2.056       .  S
Zn392       O408   2.041       .  S
Zn393       O396   1.968       .  S
Zn393       O398   2.077       .  S
Zn393       O400   2.099       .  S
Zn393       O404   2.058       .  S
Zn394       O396   1.912       .  S
Zn394       O399   1.975       .  S
Zn394       O402   1.963       .  S
Zn394       O405   2.019       .  S
Zn395       O396   1.904       .  S
Zn395       O403   2.035       .  S
Zn395       O406   1.978       .  S
Zn395       O407   1.983       .  S
O397        C409   1.271       .  A
O398        C410   1.282       .  A
O399        C411   1.270       .  A
O400        C409   1.283       .  A
O401        C411   1.281       .  A
O402        C410   1.270       .  A
O403        C412   1.275       .  A
O404        C413   1.280       .  A
O405        C412   1.271       .  A
O406        C413   1.272       .  A
O407        C414   1.271       .  A
O408        C414   1.280       .  A
C409        C853   1.496       .  S
C410        C430   1.479       .  S
C411        C629   1.489       .  S
C412        C447   1.490       .  S
C413        C500   1.474       .  S
C414        C416   1.479       .  S
C415        C416   1.407       .  A
C415        C420   1.404       .  A
C415        H422   1.084       .  S
C416        C417   1.414       .  A
C417        C418   1.396       .  A
C417        N424   1.430       .  S
C418        C419   1.400       .  A
C418        H423   1.085       .  S
C419        C420   1.407       .  A
C420        N421   1.429       .  S
N421        O425   1.262       .  A
N421        O426   1.261       .  A
N424        O428   1.262       .  A
N424        O427   1.261       .  A
C429        C430   1.403       .  A
C429        C434   1.397       .  A
C429        H436   1.084       .  S
C430        C431   1.411       .  A
C431        C432   1.408       .  A
C431        N438   1.430       .  S
C432        C433   1.408       .  A
C432        H437   1.084       .  S
C433        C434   1.414       .  A
C434        N435   1.436       .  S
N435        O439   1.263       .  A
N435        O440   1.262       .  A
N438        O442   1.262       .  A
N438        O441   1.262       .  A
C443        C444   1.406       .  A
C443        C448   1.401   1_545  A
C443        H450   1.084       .  S
C444        C445   1.409       .  A
C445        C446   1.408   1_545  A
C445        N452   1.429       .  S
C446        C447   1.410       .  A
C446        H451   1.084       .  S
C447        C448   1.412       .  A
C448        N449   1.432       .  S
N449        O453   1.262       .  A
N449        O454   1.262       .  A
N452        O456   1.261       .  A
N452        O455   1.262       .  A
C457        C458   1.404   1_455  A
C457        C462   1.395       .  A
C457        H464   1.084       .  S
C458        C459   1.413   1_655  A
C459        C460   1.401       .  A
C459        N466   1.429   1_455  S
C460        C461   1.404       .  A
C460        H465   1.084       .  S
C461        C462   1.414       .  A
C462        N463   1.434       .  S
N463        O467   1.262       .  A
N463        O468   1.262   1_455  A
N466        O470   1.262       .  A
N466        O469   1.261   1_655  A
C471        C472   1.414   1_455  A
C471        C476   1.398       .  A
C471        H478   1.083       .  S
C472        C473   1.411       .  A
C473        C474   1.406       .  A
C473        N480   1.433       .  S
C474        C475   1.412   1_655  A
C474        H479   1.084       .  S
C475        C476   1.403       .  A
C476        N477   1.429       .  S
N477        O481   1.262       .  A
N477        O482   1.262       .  A
N480        O484   1.263       .  A
N480        O483   1.262       .  A
C485        C490   1.396   1_565  A
C485       C1656   1.400       .  A
C485        H492   1.084       .  S
C486        C487   1.414       .  A
C486       C1655   1.403       .  A
C487        C488   1.399   1_565  A
C487        N494   1.431       .  S
C488       C1659   1.401       .  A
C488        H493   1.084       .  S
C489        C490   1.412       .  A
C489       C1658   1.402   1_554  A
C490        N491   1.429       .  S
N491        O495   1.262       .  A
N491        O496   1.262       .  A
N494        O498   1.262       .  A
N494        O497   1.262       .  A
C499        C500   1.401       .  A
C499        C504   1.396   1_655  A
C499        H506   1.085       .  S
C500        C501   1.411       .  A
C501        C502   1.408   1_655  A
C501        N508   1.432       .  S
C502        C503   1.408       .  A
C502        H507   1.084       .  S
C503        C504   1.409       .  A
C504        N505   1.431       .  S
N505        O509   1.262       .  A
N505        O510   1.262       .  A
N508        O512   1.262       .  A
N508        O511   1.262       .  A
C513        C514   1.404       .  A
C513        C518   1.406       .  A
C513        H520   1.084       .  S
C514        C515   1.411       .  A
C515        C516   1.396       .  A
C515        N522   1.433       .  S
C516        C517   1.403       .  A
C516        H521   1.085       .  S
C517        C518   1.415       .  A
C518        N519   1.430       .  S
N519        O523   1.262       .  A
N519        O524   1.262       .  A
N522        O526   1.262       .  A
N522        O525   1.262       .  A
C527        C528   1.408   1_565  A
C527        C532   1.396       .  A
C527        H534   1.085       .  S
C528        C529   1.417       .  A
C529        C530   1.409       .  A
C529        N536   1.433       .  S
C530        C531   1.404   1_545  A
C530        H535   1.085       .  S
C531        C532   1.407       .  A
C532        N533   1.433       .  S
N533        O537   1.261       .  A
N533        O538   1.262       .  A
N536        O540   1.262       .  A
N536        O539   1.262       .  A
C541        C542   1.406   1_545  A
C541        C546   1.407       .  A
C541        H548   1.084       .  S
C542        C543   1.408       .  A
C543        C544   1.394       .  A
C543        N550   1.430       .  S
C544        C545   1.405   1_565  A
C544        H549   1.084       .  S
C545        C546   1.412       .  A
C546        N547   1.428       .  S
N547        O551   1.262       .  A
N547        O552   1.262       .  A
N550        O554   1.262       .  A
N550        O553   1.262       .  A
C555        C560   1.401   1_455  A
C555       C1726   1.404       .  A
C555        H562   1.084       .  S
C556        C557   1.417       .  A
C556       C1725   1.404       .  A
C557        C558   1.406   1_455  A
C557        N564   1.431       .  S
C558       C1729   1.404       .  A
C558        H563   1.084       .  S
C559        C560   1.415       .  A
C559       C1728   1.403   1_554  A
C560        N561   1.436       .  S
N561        O565   1.263       .  A
N561        O566   1.263       .  A
N564       O1738   1.262       .  A
N564        O567   1.262       .  A
O568       N1734   1.262       .  A
C569        C570   1.407       .  A
C569        C574   1.406       .  A
C569        H576   1.084       .  S
C570       C1741   1.409       .  A
C571        C572   1.405       .  A
C571       C1740   1.410       .  A
C571        N578   1.430       .  S
C572        C573   1.407       .  A
C572        H577   1.084       .  S
C573       C1744   1.411   1_554  A
C574       C1743   1.411       .  A
C574        N575   1.429       .  S
N575       O1749   1.262       .  A
N575        O580   1.262       .  A
N578       O1752   1.262       .  A
N578        O581   1.262       .  A
O579       N1745   1.263       .  A
O582       N1748   1.262       .  A
C583        C584   1.408       .  A
C583        C588   1.403       .  A
C583        H590   1.084       .  S
C584        C585   1.409       .  A
C585        C586   1.406       .  A
C585        N592   1.437       .  S
C586        C587   1.413       .  A
C586        H591   1.083       .  S
C587        C588   1.413       .  A
C588       N1759   1.430       .  S
N589       C1758   1.431   1_554  S
N589        O593   1.262       .  A
N589        O594   1.262       .  A
N592        O596   1.262       .  A
N592        O595   1.263       .  A
C597        C598   1.404       .  A
C597        C602   1.395       .  A
C597        H604   1.085       .  S
C598        C599   1.414       .  A
C599        C600   1.409       .  A
C599        N606   1.433       .  S
C600        C601   1.406       .  A
C600        H605   1.084       .  S
C601        C602   1.408       .  A
C602        N603   1.428       .  S
N603        O607   1.261       .  A
N603        O608   1.262       .  A
N606        O610   1.262       .  A
N606        O609   1.262       .  A
C611        C612   1.405       .  A
C611        C616   1.406       .  A
C611        H618   1.084       .  S
C612       C1442   1.481   1_554  S
C612        C613   1.415       .  A
C613        C614   1.397       .  A
C613        N620   1.433       .  S
C614        C615   1.401       .  A
C614        H619   1.085       .  S
C615        C616   1.411       .  A
C616        N617   1.427       .  S
N617        O621   1.261       .  A
N617        O622   1.262       .  A
N620        O624   1.262       .  A
N620       O1793   1.262       .  A
O623       N1790   1.262       .  A
C625        C626   1.409       .  A
C625        C630   1.399       .  A
C625        H632   1.084       .  S
C626        C627   1.409       .  A
C627        C628   1.405       .  A
C627        N634   1.437       .  S
C628        C629   1.413       .  A
C628        H633   1.084       .  S
C629        C630   1.408       .  A
C630        N631   1.429       .  S
N631        O635   1.262       .  A
N631        O636   1.262       .  A
N634        O638   1.263       .  A
N634        O637   1.262       .  A
C639        C640   1.401       .  A
C639        C644   1.405       .  A
C639        H646   1.084       .  S
C640        C641   1.404       .  A
C641        C642   1.398       .  A
C641        N648   1.430       .  S
C642        C643   1.409       .  A
C642        H647   1.084       .  S
C643        C644   1.416       .  A
C644        N645   1.431       .  S
N645        O649   1.262       .  A
N645        O650   1.262       .  A
N648        O652   1.262       .  A
N648        O651   1.262       .  A
C653        C654   1.411       .  A
C653        C658   1.402       .  A
C653        H660   1.084       .  S
C654        C655   1.412       .  A
C655        C656   1.408       .  A
C655       N1832   1.437       .  S
C656        C657   1.408       .  A
C656        H661   1.084       .  S
C657        C658   1.402       .  A
C658        N659   1.430       .  S
N659        O663   1.262       .  A
N659        O664   1.261       .  A
N662       C1825   1.435   1_554  S
N662        O666   1.262       .  A
N662        O665   1.262       .  A
C667        C668   1.414       .  A
C667        C672   1.397       .  A
C667        H674   1.083       .  S
C668        C669   1.411       .  A
C669        C670   1.403       .  A
C669        N676   1.429       .  S
C670        C671   1.408       .  A
C670        H675   1.084       .  S
C671        C672   1.401       .  A
C672        N673   1.430       .  S
N673        O677   1.262       .  A
N673        O678   1.262       .  A
N676        O680   1.262       .  A
N676        O679   1.262       .  A
C681        C682   1.406       .  A
C681        C686   1.402       .  A
C681        H688   1.084       .  S
C682        C683   1.418       .  A
C683        C684   1.394       .  A
C683        N690   1.433       .  S
C684        C685   1.399       .  A
C684        H689   1.085       .  S
C685       C1396   1.473   1_554  S
C685        C686   1.411       .  A
C686        N687   1.430       .  S
N687        O691   1.262       .  A
N687        O692   1.262       .  A
N690        O694   1.262       .  A
N690        O693   1.262       .  A
C695        C696   1.403       .  A
C695        C700   1.404       .  A
C695        H702   1.084       .  S
C696        C697   1.412       .  A
C697        C698   1.393       .  A
C697        N704   1.434       .  S
C698        C699   1.402       .  A
C698        H703   1.084       .  S
C699        C700   1.416       .  A
C700        N701   1.429       .  S
N701        O705   1.262       .  A
N701        O706   1.262       .  A
N704        O708   1.262       .  A
N704        O707   1.262       .  A
C709        C710   1.402       .  A
C709        C714   1.403       .  A
C709        H716   1.084       .  S
C710        C711   1.418       .  A
C711        C712   1.402       .  A
C711        N718   1.430       .  S
C712        C713   1.401       .  A
C712        H717   1.084       .  S
C713        C714   1.418       .  A
C714        N715   1.433       .  S
N715        O719   1.262       .  A
N715        O720   1.262       .  A
N718        O722   1.262       .  A
N718        O721   1.262       .  A
C723        C724   1.402       .  A
C723        C728   1.405       .  A
C723        H730   1.084       .  S
C724        C725   1.421       .  A
C725        C726   1.405       .  A
C725        N732   1.431       .  S
C726        C727   1.401       .  A
C726       H1901   1.084       .  S
C727        C728   1.421       .  A
C728        N729   1.433       .  S
N729        O733   1.262       .  A
N729        O734   1.262       .  A
H731       C1896   1.084   1_554  S
N732        O736   1.262       .  A
N732        O735   1.262       .  A
C737        C738   1.402       .  A
C737        C742   1.398       .  A
C737        H744   1.084       .  S
C738        C739   1.415       .  A
C739        C740   1.399       .  A
C739        N746   1.435       .  S
C740        C741   1.401       .  A
C740        H745   1.084       .  S
C741        C742   1.411       .  A
C742        N743   1.430       .  S
N743        O747   1.262       .  A
N743        O748   1.262       .  A
N746        O750   1.263       .  A
N746        O749   1.262       .  A
C751        C752   1.404       .  A
C751        C756   1.396       .  A
C751        H758   1.085       .  S
C752        C753   1.411       .  A
C753        C754   1.408       .  A
C753        N760   1.430       .  S
C754        C755   1.409       .  A
C754        H759   1.084       .  S
C755        C756   1.409       .  A
C756        N757   1.428       .  S
N757        O761   1.262       .  A
N757        O762   1.261       .  A
N760        O764   1.262       .  A
N760        O763   1.262       .  A
C765        C766   1.406       .  A
C765        C770   1.399       .  A
C765        H772   1.084       .  S
C766        C767   1.415       .  A
C767        C768   1.407       .  A
C767        N774   1.430       .  S
C768        C769   1.403       .  A
C768        H773   1.084       .  S
C769        C770   1.411       .  A
C770        N771   1.439       .  S
N771        O775   1.263       .  A
N771        O776   1.263       .  A
N774        O778   1.262       .  A
N774        O777   1.262       .  A
C779        C780   1.408       .  A
C779        C784   1.408       .  A
C779        H786   1.084       .  S
C780        C781   1.410       .  A
C781        C782   1.395       .  A
C781        N788   1.432       .  S
C782        C783   1.404       .  A
C782        H787   1.085       .  S
C783       C1351   1.478   1_554  S
C783        C784   1.412       .  A
C784        N785   1.432       .  S
N785        O789   1.262       .  A
N785        O790   1.262       .  A
N788        O792   1.262       .  A
N788        O791   1.262       .  A
C793        C794   1.414       .  A
C793        C798   1.404       .  A
C793        H800   1.084       .  S
C794        C795   1.415       .  A
C795        C796   1.401       .  A
C795        N802   1.431       .  S
C796        C797   1.404       .  A
C796        H801   1.085       .  S
C797        C798   1.404       .  A
C798        N799   1.432       .  S
N799        O803   1.262       .  A
N799        O804   1.262       .  A
N802        O806   1.262       .  A
N802        O805   1.262       .  A
C807        C808   1.401       .  A
C807        C812   1.402       .  A
C807        H814   1.084       .  S
C808        C809   1.417       .  A
C809        C810   1.410       .  A
C809        N816   1.429       .  S
C810        C811   1.404       .  A
C810        H815   1.084       .  S
C811        C812   1.419       .  A
C812        N813   1.435       .  S
N813        O817   1.263       .  A
N813        O818   1.263       .  A
N816        O820   1.262       .  A
N816        O819   1.262       .  A
C821        C822   1.403       .  A
C821        C826   1.406       .  A
C821        H828   1.084       .  S
C822        C823   1.412       .  A
C823        C824   1.401       .  A
C823        N830   1.435       .  S
C824        C825   1.403       .  A
C824        H829   1.084       .  S
C825        C826   1.416       .  A
C826        N827   1.434       .  S
N827        O831   1.262       .  A
N827        O832   1.263       .  A
N830        O834   1.262       .  A
N830        O833   1.263       .  A
C835        C836   1.413       .  A
C835        C840   1.409       .  A
C835        H842   1.084       .  S
C836        C837   1.412       .  A
C837        C838   1.400       .  A
C837        N844   1.433       .  S
C838        C839   1.408       .  A
C838        H843   1.084       .  S
C839        C840   1.409       .  A
C840        N841   1.430       .  S
N841        O845   1.262       .  A
N841        O846   1.262       .  A
N844        O848   1.262       .  A
N844        O847   1.262       .  A
C849        C850   1.409       .  A
C849        C854   1.410       .  A
C849        H856   1.084       .  S
C850        C851   1.408       .  A
C851        C852   1.406       .  A
C851        N858   1.433       .  S
C852        C853   1.412       .  A
C852        H857   1.084       .  S
C853        C854   1.410       .  A
C854        N855   1.428       .  S
N855        O859   1.262       .  A
N855        O860   1.262       .  A
N858        O862   1.262       .  A
N858        O861   1.262       .  A
C863        C864   1.413       .  A
C863        C868   1.398       .  A
C863        H870   1.084       .  S
C864       C1282   1.484       .  S
C864        C865   1.409       .  A
C865        C866   1.399       .  A
C865        N872   1.432       .  S
C866        C867   1.412       .  A
C866        H871   1.084       .  S
C867        C868   1.406       .  A
C868        N869   1.430       .  S
N869        O873   1.262       .  A
N869        O874   1.262       .  A
N872        O876   1.262       .  A
N872       O2045   1.262       .  A
O875       N2042   1.262       .  A
C877        C878   1.403       .  A
C877        C882   1.400       .  A
C877        H884   1.084       .  S
C878        C879   1.408       .  A
C879        C880   1.392       .  A
C879        N886   1.429       .  S
C880        C881   1.406       .  A
C880        H885   1.084       .  S
C881        C882   1.415       .  A
C882        N883   1.429       .  S
N883        O887   1.262       .  A
N883        O888   1.262       .  A
N886        O890   1.262       .  A
N886        O889   1.261       .  A
C891        C892   1.411       .  A
C891        C896   1.394       .  A
C891        H898   1.083       .  S
C892        C893   1.415       .  A
C893        C894   1.412       .  A
C893        N900   1.429       .  S
C894        C895   1.407       .  A
C894        H899   1.084       .  S
C895        C896   1.403       .  A
C896        N897   1.435       .  S
N897        O901   1.262       .  A
N897        O902   1.262       .  A
N900        O904   1.262       .  A
N900        O903   1.262       .  A
C905        C906   1.407       .  A
C905        C910   1.399       .  A
C905        H912   1.084       .  S
C906        C907   1.406       .  A
C907        C908   1.403       .  A
C907        N914   1.433       .  S
C908        C909   1.412       .  A
C908        H913   1.084       .  S
C909        C910   1.411       .  A
C910        N911   1.435       .  S
N911        O915   1.263       .  A
N911        O916   1.262       .  A
N914        O918   1.263   1_554  A
N914        O917   1.262   1_554  A
C919        C920   1.407       .  A
C919        C924   1.409       .  A
C919        H926   1.084       .  S
C920        C921   1.412       .  A
C921        C922   1.396       .  A
C921        N928   1.434       .  S
C922        C923   1.401       .  A
C922        H927   1.085       .  S
C923        C924   1.415       .  A
C924        N925   1.436       .  S
N925        O929   1.263       .  A
N925        O930   1.262       .  A
N928        O932   1.263       .  A
N928        O931   1.262       .  A
C933        C934   1.400       .  A
C933        C938   1.396   1_545  A
C933        H940   1.084       .  S
C934        C935   1.416       .  A
C935        C936   1.408   1_545  A
C935        N942   1.433       .  S
C936        C937   1.405       .  A
C936        H941   1.084       .  S
C937        C938   1.422       .  A
C938        N939   1.438       .  S
N939        O943   1.263       .  A
N939        O944   1.263       .  A
N942        O946   1.262       .  A
N942        O945   1.262       .  A
C947        C948   1.409       .  A
C947        C952   1.401       .  A
C947        H954   1.085       .  S
C948        C949   1.407       .  A
C949        C950   1.406       .  A
C949        N956   1.429       .  S
C950        C951   1.409       .  A
C950        H955   1.084       .  S
C951        C952   1.405       .  A
C952        N953   1.429       .  S
N953        O957   1.262       .  A
N953        O958   1.262       .  A
N956        O960   1.262       .  A
N956        O959   1.262       .  A
C961        C962   1.408       .  A
C961        C966   1.395       .  A
C961        H968   1.084       .  S
C962       C1238   1.476       .  S
C962        C963   1.406       .  A
C963        C964   1.399       .  A
C963        N970   1.430       .  S
C964        C965   1.411       .  A
C964        H969   1.084       .  S
C965        C966   1.408       .  A
C966        N967   1.430       .  S
N967        O971   1.262       .  A
N967        O972   1.262       .  A
N970        O974   1.262       .  A
N970        O973   1.262       .  A
C975        C976   1.405       .  A
C975        C980   1.400       .  A
C975        H982   1.084       .  S
C976        C977   1.414       .  A
C977        C978   1.395       .  A
C977        N984   1.431       .  S
C978        C979   1.403       .  A
C978        H983   1.084       .  S
C979        C980   1.412       .  A
C980        N981   1.430       .  S
N981        O985   1.262       .  A
N981        O986   1.262       .  A
N984        O988   1.262       .  A
N984        O987   1.262       .  A
C989        C990   1.401       .  A
C989        C994   1.398       .  A
C989        H996   1.084       .  S
C990        C991   1.415       .  A
C991        C992   1.406       .  A
C991        N998   1.432       .  S
C992        C993   1.404       .  A
C992        H997   1.084       .  S
C993        C994   1.413       .  A
C994        N995   1.436       .  S
N995        O999   1.263       .  A
N995       O1000   1.262       .  A
N998       O1002   1.262       .  A
N998       O1001   1.262       .  A
C1003      C1004   1.409       .  A
C1003      C1008   1.403   1_565  A
C1003      H1010   1.085       .  S
C1004      C1005   1.409   1_565  A
C1005      C1006   1.408       .  A
C1005      N1012   1.432       .  S
C1006      C1007   1.410       .  A
C1006      H1011   1.084       .  S
C1007      C1008   1.405       .  A
C1008      N1009   1.429       .  S
N1009      O1013   1.262       .  A
N1009      O1014   1.262       .  A
N1012      O1016   1.262   1_545  A
N1012      O1015   1.262       .  A
C1017      C1018   1.407       .  A
C1017      C1022   1.401       .  A
C1017      H1024   1.085       .  S
C1018      C1019   1.410       .  A
C1019      C1020   1.411       .  A
C1019      N1026   1.434   1_554  S
C1020      C1021   1.414       .  A
C1020      H1025   1.084       .  S
C1021      C1022   1.413       .  A
C1022      N1023   1.434       .  S
N1023      O1027   1.262       .  A
N1023      O1028   1.262       .  A
N1026      O1030   1.263       .  A
N1026      O1029   1.262       .  A
C1031      C1032   1.412       .  A
C1031      C1036   1.409       .  A
C1031      H1038   1.084       .  S
C1032      C1033   1.412       .  A
C1033      C1034   1.413       .  A
C1033      N1040   1.434       .  S
C1034      C1035   1.411       .  A
C1034      H1039   1.084       .  S
C1035      C1036   1.410       .  A
C1036      N1037   1.437       .  S
N1037      O1041   1.262       .  A
N1037      O1042   1.263       .  A
N1040      O1044   1.262       .  A
N1040      O1043   1.262       .  A
C1045      C1046   1.411       .  A
C1045      C1050   1.412       .  A
C1045      H1052   1.083       .  S
C1046      C1047   1.415       .  A
C1047      C1048   1.403       .  A
C1047      N1054   1.436       .  S
C1048      C1049   1.407       .  A
C1048      H1053   1.084       .  S
C1049      C1050   1.413       .  A
C1050      N1051   1.430       .  S
N1051      O1055   1.262       .  A
N1051      O1056   1.262       .  A
N1054      O1058   1.262       .  A
N1054      O1057   1.263       .  A
C1059      C1060   1.404       .  A
C1059      C1064   1.405       .  A
C1059      H1066   1.084       .  S
C1060      C1061   1.415       .  A
C1061      C1062   1.397       .  A
C1061      N1068   1.434       .  S
C1062      C1063   1.401       .  A
C1062      H1067   1.084       .  S
C1063      C1064   1.414       .  A
C1064      N1065   1.429       .  S
N1065      O1069   1.262       .  A
N1065      O1070   1.262       .  A
N1068      O1072   1.262       .  A
N1068      O1071   1.262       .  A
C1073      C1074   1.403       .  A
C1073      C1078   1.399   1_455  A
C1073      H1080   1.084       .  S
C1074      C1075   1.416       .  A
C1075      C1076   1.403   1_455  A
C1075      N1082   1.429       .  S
C1076      C1077   1.401       .  A
C1076      H1081   1.084       .  S
C1077      C1078   1.410       .  A
C1078      N1079   1.430       .  S
N1079      O1083   1.262       .  A
N1079      O1084   1.262       .  A
N1082      O1086   1.262       .  A
N1082      O1085   1.262       .  A
C1087      C1088   1.404       .  A
C1087      C1092   1.405       .  A
C1087      H1094   1.085       .  S
C1088      C1189   1.468       .  S
C1088      C1089   1.402       .  A
C1089      C1090   1.396       .  A
C1089      N1096   1.429       .  S
C1090      C1091   1.410       .  A
C1090      H1095   1.084       .  S
C1091      C1092   1.411       .  A
C1092      N1093   1.428       .  S
N1093      O1097   1.262       .  A
N1093      O1098   1.262       .  A
N1096      O1100   1.262       .  A
N1096      O2269   1.262       .  A
O1099      N2266   1.262       .  A
C1101      C1102   1.407       .  A
C1101      C1106   1.403       .  A
C1101      H1108   1.084       .  S
C1102      C1103   1.410       .  A
C1103      C1104   1.394       .  A
C1103      N1110   1.429       .  S
C1104      C1105   1.402       .  A
C1104      H1109   1.085       .  S
C1105      C1106   1.407       .  A
C1106      N1107   1.429       .  S
N1107      O1111   1.262       .  A
N1107      O1112   1.262       .  A
N1110      O1114   1.262       .  A
N1110      O1113   1.261       .  A
C1115      C1116   1.408       .  A
C1115      C1120   1.400       .  A
C1115      H1122   1.085       .  S
C1116      C1117   1.408       .  A
C1117      C1118   1.406       .  A
C1117      N1124   1.433       .  S
C1118      C1119   1.413       .  A
C1118      H1123   1.084       .  S
C1119      C1120   1.411       .  A
C1120      N1121   1.436   1_554  S
N1121      O1125   1.263       .  A
N1121      O1126   1.262       .  A
N1124      O1128   1.262       .  A
N1124      O1127   1.262       .  A
C1129      C1130   1.403       .  A
C1129      C1134   1.398       .  A
C1129      H1136   1.084       .  S
C1130      C1131   1.409       .  A
C1131      C1132   1.399       .  A
C1131      N1138   1.434       .  S
C1132      C1133   1.405       .  A
C1132      H1137   1.084       .  S
C1133      C1134   1.410       .  A
C1134      N1135   1.429       .  S
N1135      O1139   1.262       .  A
N1135      O1140   1.262       .  A
N1138      O1142   1.262       .  A
N1138      O1141   1.262       .  A
C1143      C1144   1.401       .  A
C1143      C1148   1.405       .  A
C1143      H1150   1.084       .  S
C1144      C1145   1.411       .  A
C1145      C1146   1.405       .  A
C1145      N1152   1.429       .  S
C1146      C1147   1.404       .  A
C1146      H1151   1.084       .  S
C1147      C1148   1.418       .  A
C1148      N1149   1.435       .  S
N1149      O1153   1.262       .  A
N1149      O1154   1.262       .  A
N1152      O1156   1.262       .  A
N1152      O1155   1.262       .  A
C1157      C1158   1.416       .  A
C1157      C1162   1.410   1_655  A
C1157      H1164   1.084       .  S
C1158      C1159   1.412   1_655  A
C1159      C1160   1.399       .  A
C1159      N1166   1.430       .  S
C1160      C1161   1.409       .  A
C1160      H1165   1.085       .  S
C1161      C1162   1.407       .  A
C1162      N1163   1.429       .  S
N1163      O1167   1.262       .  A
N1163      O1168   1.262       .  A
N1166      O1170   1.262       .  A
N1166      O1169   1.262       .  A
Zn1171     O1175   1.923       .  S
Zn1171     O1176   1.996       .  S
Zn1171     O1180   2.003       .  S
Zn1171     O1187   1.954       .  S
Zn1172     O1175   1.927       .  S
Zn1172     O1177   1.991       .  S
Zn1172     O1179   2.016       .  S
Zn1172     O1183   2.010       .  S
Zn1173     O1175   1.939       .  S
Zn1173     O1178   2.055       .  S
Zn1173     O1181   2.032       .  S
Zn1173     O1184   1.966       .  S
Zn1174     O1175   1.968       .  S
Zn1174     O1182   2.068       .  S
Zn1174     O1185   2.066       .  S
Zn1174     O1186   2.066       .  S
O1176      C1188   1.271       .  A
O1177      C1189   1.271       .  A
O1178      C1190   1.279       .  A
O1179      C1188   1.274       .  A
O1180      C1190   1.271       .  A
O1181      C1189   1.277       .  A
O1182      C1191   1.280       .  A
O1183      C1192   1.273       .  A
O1184      C1191   1.268       .  A
O1185      C1192   1.279       .  A
O1186      C1193   1.280       .  A
O1187      C1193   1.269       .  A
C1188      C2300   1.473       .  S
C1190      C2328   1.497       .  S
C1191      C2286   1.483       .  S
C1192      C2314   1.486       .  S
C1193      C2275   1.475       .  S
Zn1194     O1198   1.943       .  S
Zn1194     O1199   2.038       .  S
Zn1194     O1203   2.032       .  S
Zn1194     O1210   1.991       .  S
Zn1195     O1198   1.948       .  S
Zn1195     O1200   2.042       .  S
Zn1195     O1202   2.002       .  S
Zn1195     O1206   1.976       .  S
Zn1196     O1198   1.915       .  S
Zn1196     O1201   1.986       .  S
Zn1196     O1204   2.021       .  S
Zn1196     O1207   1.979       .  S
Zn1197     O1198   1.980       .  S
Zn1197     O1205   2.048       .  S
Zn1197     O1208   2.058       .  S
Zn1197     O1209   2.082       .  S
O1199      C1211   1.278       .  A
O1200      C1212   1.274       .  A
O1201      C1213   1.272       .  A
O1202      C1211   1.272       .  A
O1203      C1213   1.277       .  A
O1204      C1212   1.273       .  A
O1205      C1214   1.277       .  A
O1206      C1215   1.272       .  A
O1207      C1214   1.271       .  A
O1208      C1215   1.280       .  A
O1209      C1216   1.279       .  A
O1210      C1216   1.269       .  A
C1211      C2247   1.477       .  S
C1212      C2216   1.497       .  S
C1213      C2272   1.474       .  S
C1214      C2230   1.480       .  S
C1215      C2261   1.479       .  S
C1216      C2205   1.484       .  S
Zn1217     O1221   1.919       .  S
Zn1217     O1222   2.001       .  S
Zn1217     O1226   1.974       .  S
Zn1217     O1233   2.005       .  S
Zn1218     O1221   1.971       .  S
Zn1218     O1223   2.089       .  S
Zn1218     O1225   2.071       .  S
Zn1218     O1229   2.049       .  S
Zn1219     O1221   1.938       .  S
Zn1219     O1224   2.015       .  S
Zn1219     O1227   1.993       .  S
Zn1219     O1230   2.040       .  S
Zn1220     O1221   1.949       .  S
Zn1220     O1228   2.024       .  S
Zn1220     O1231   1.963       .  S
Zn1220     O1232   2.035       .  S
O1222      C1234   1.271       .  A
O1223      C1235   1.282       .  A
O1224      C1236   1.276       .  A
O1225      C1234   1.279       .  A
O1226      C1236   1.270       .  A
O1227      C1235   1.270       .  A
O1228      C1237   1.273       .  A
O1229      C1238   1.281       .  A
O1230      C1237   1.277       .  A
O1231      C1238   1.272       .  A
O1232      C1239   1.274       .  A
O1233      C1239   1.273       .  A
C1234      C2317   1.485       .  S
C1235      C2177   1.485       .  S
C1236      C2146   1.471       .  S
C1237      C2191   1.499       .  S
C1239      C2160   1.489       .  S
Zn1240     O1244   1.911       .  S
Zn1240     O1245   1.984       .  S
Zn1240     O1249   2.008       .  S
Zn1240     O1256   1.989       .  S
Zn1241     O1244   1.929       .  S
Zn1241     O1246   2.031       .  S
Zn1241     O1248   2.011       .  S
Zn1241     O1252   1.981       .  S
Zn1242     O1244   1.927       .  S
Zn1242     O1247   2.010       .  S
Zn1242     O1250   1.997       .  S
Zn1242     O1253   1.953       .  S
Zn1243     O1244   1.970       .  S
Zn1243     O1251   2.059       .  S
Zn1243     O1254   2.087       .  S
Zn1243     O1255   2.061       .  S
O1245      C1257   1.273       .  A
O1246      C1258   1.277       .  A
O1247      C1259   1.272       .  A
O1248      C1257   1.274       .  A
O1249      C1259   1.273       .  A
O1250      C1258   1.269       .  A
O1251      C1260   1.282       .  A
O1252      C1261   1.270       .  A
O1253      C1260   1.269       .  A
O1254      C1261   1.282       .  A
O1255      C1262   1.278       .  A
O1256      C1262   1.272       .  A
C1257      C2149   1.479       .  S
C1258      C2104   1.492       .  S
C1259      C2233   1.478       .  S
C1260      C2135   1.481       .  S
C1261      C2121   1.486       .  S
C1262      C2093   1.486       .  S
Zn1263     O1267   1.922       .  S
Zn1263     O1268   1.989       .  S
Zn1263     O1272   1.952       .  S
Zn1263     O1279   1.988       .  S
Zn1264     O1267   1.933       .  S
Zn1264     O1269   1.975       .  S
Zn1264     O1271   2.027       .  S
Zn1264     O1275   2.016       .  S
Zn1265     O1267   1.973       .  S
Zn1265     O1270   2.059       .  S
Zn1265     O1273   2.078       .  S
Zn1265     O1276   2.064       .  S
Zn1266     O1267   1.909       .  S
Zn1266     O1274   1.981       .  S
Zn1266     O1277   1.970       .  S
Zn1266     O1278   2.011       .  S
O1268      C1280   1.269       .  A
O1269      C1281   1.268       .  A
O1270      C1282   1.281       .  A
O1271      C1280   1.276       .  A
O1272      C1282   1.268       .  A
O1273      C1281   1.281       .  A
O1274      C1283   1.271       .  A
O1275      C1284   1.274       .  A
O1276      C1283   1.278       .  A
O1277      C1284   1.271       .  A
O1278      C1285   1.272       .  A
O1279      C1285   1.269       .  A
C1280      C2079   1.485       .  S
C1281      C2065   1.478       .  S
C1283      C2163   1.487       .  S
C1284      C2051   1.476       .  S
C1285      C2303   1.471       .  S
Zn1286     O1290   1.983       .  S
Zn1286     O1291   2.080       .  S
Zn1286     O1295   2.048       .  S
Zn1286     O1302   2.094       .  S
Zn1287     O1290   1.907       .  S
Zn1287     O1292   1.993       .  S
Zn1287     O1294   1.986       .  S
Zn1287     O1298   1.972       .  S
Zn1288     O1290   1.954       .  S
Zn1288     O1293   1.973       .  S
Zn1288     O1296   2.056       .  S
Zn1288     O1299   2.028       .  S
Zn1289     O1290   1.937       .  S
Zn1289     O1297   2.026       .  S
Zn1289     O1300   2.011       .  S
Zn1289     O1301   1.971       .  S
O1291      C1303   1.279       .  A
O1292      C1304   1.272       .  A
O1293      C1305   1.273       .  A
O1294      C1303   1.271       .  A
O1295      C1305   1.282       .  A
O1296      C1304   1.277       .  A
O1297      C1306   1.275       .  A
O1298      C1307   1.269       .  A
O1299      C1306   1.274       .  A
O1300      C1307   1.274       .  A
O1301      C1308   1.268       .  A
O1302      C1308   1.282       .  A
C1303      C2219   1.494       .  S
C1304      C2090   1.490       .  S
C1305      C2037   1.469       .  S
C1306      C2006   1.497       .  S
C1307      C2048   1.475       .  S
C1308      C2020   1.485       .  S
Zn1309     O1313   1.918       .  S
Zn1309     O1314   1.992       .  S
Zn1309     O1318   2.019       .  S
Zn1309     O1325   1.987       .  S
Zn1310     O1313   1.947       .  S
Zn1310     O1315   2.039       .  S
Zn1310     O1317   2.021       .  S
Zn1310     O1321   1.980       .  S
Zn1311     O1313   1.934       .  S
Zn1311     O1316   2.019       .  S
Zn1311     O1319   1.978       .  S
Zn1311     O1322   1.955       .  S
Zn1312     O1313   1.981       .  S
Zn1312     O1320   2.080       .  S
Zn1312     O1323   2.094       .  S
Zn1312     O1324   2.065       .  S
O1314      C1326   1.272       .  A
O1315      C1327   1.277       .  A
O1316      C1328   1.271       .  A
O1317      C1326   1.275       .  A
O1318      C1328   1.274       .  A
O1319      C1327   1.269       .  A
O1320      C1329   1.283       .  A
O1321      C1330   1.269       .  A
O1322      C1329   1.269       .  A
O1323      C1330   1.283       .  A
O1324      C1331   1.280       .  A
O1325      C1331   1.272       .  A
C1326      C1950   1.468       .  S
C1327      C1964   1.478       .  S
C1328      C1978   1.490       .  S
C1329      C1939   1.480       .  S
C1330      C2174   1.490       .  S
C1331      C1992   1.487       .  S
Zn1332     O1336   1.909       .  S
Zn1332     O1337   1.997       .  S
Zn1332     O1341   1.974       .  S
Zn1332     O1348   2.008       .  S
Zn1333     O1336   1.935       .  S
Zn1333     O1338   1.988       .  S
Zn1333     O1340   2.059       .  S
Zn1333     O1344   2.047       .  S
Zn1334     O1336   1.963       .  S
Zn1334     O1339   2.059       .  S
Zn1334     O1342   2.060       .  S
Zn1334     O1345   2.052       .  S
Zn1335     O1336   1.908       .  S
Zn1335     O1343   1.969       .  S
Zn1335     O1346   1.985       .  S
Zn1335     O1347   2.013       .  S
O1337      C1349   1.271       .  A
O1338      C1350   1.271       .  A
O1339      C1351   1.279       .  A
O1340      C1349   1.281       .  A
O1341      C1351   1.271       .  A
O1342      C1350   1.281       .  A
O1343      C1352   1.269       .  A
O1344      C1353   1.279       .  A
O1345      C1352   1.277       .  A
O1346      C1353   1.271       .  A
O1347      C1354   1.274       .  A
O1348      C1354   1.273       .  A
C1349      C1894   1.493       .  S
C1350      C2107   1.486       .  S
C1352      C1922   1.476       .  S
C1353      C1936   1.479       .  S
C1354      C1908   1.480       .  S
Zn1355     O1359   1.924       .  S
Zn1355     O1360   1.958       .  S
Zn1355     O1364   2.012       .  S
Zn1355     O1371   1.999       .  S
Zn1356     O1359   1.974       .  S
Zn1356     O1361   2.075       .  S
Zn1356     O1363   2.071       .  S
Zn1356     O1367   2.088       .  S
Zn1357     O1359   1.901       .  S
Zn1357     O1362   2.006       .  S
Zn1357     O1365   1.974       .  S
Zn1357     O1368   1.975       .  S
Zn1358     O1359   1.941       .  S
Zn1358     O1366   2.031       .  S
Zn1358     O1369   1.972       .  S
Zn1358     O1370   2.038       .  S
O1360      C1372   1.270       .  A
O1361      C1373   1.280       .  A
O1362      C1374   1.274       .  A
O1363      C1372   1.283       .  A
O1364      C1374   1.271       .  A
O1365      C1373   1.270       .  A
O1366      C1375   1.277       .  A
O1367      C1376   1.282       .  A
O1368      C1375   1.269       .  A
O1369      C1376   1.269       .  A
O1370      C1377   1.277       .  A
O1371      C1377   1.271       .  A
C1372      C1838   1.484       .  S
C1373      C1981   1.488       .  S
C1374      C1869   1.481       .  S
C1375      C1852   1.484       .  S
C1376      C2331   1.487       .  S
C1377      C1880   1.486       .  S
Zn1378     O1382   1.932       .  S
Zn1378     O1383   1.999       .  S
Zn1378     O1387   1.992       .  S
Zn1378     O1394   1.960       .  S
Zn1379     O1382   1.921       .  S
Zn1379     O1384   1.980       .  S
Zn1379     O1386   2.024       .  S
Zn1379     O1390   2.001       .  S
Zn1380     O1382   1.932       .  S
Zn1380     O1385   2.038       .  S
Zn1380     O1388   2.019       .  S
Zn1380     O1391   1.985       .  S
Zn1381     O1382   1.964       .  S
Zn1381     O1389   2.086       .  S
Zn1381     O1392   2.045       .  S
Zn1381     O1393   2.060       .  S
O1383      C1395   1.270       .  A
O1384      C1396   1.273       .  A
O1385      C1397   1.277       .  A
O1386      C1395   1.274       .  A
O1387      C1397   1.270       .  A
O1388      C1396   1.276       .  A
O1389      C1398   1.281       .  A
O1390      C1399   1.272       .  A
O1391      C1398   1.269       .  A
O1392      C1399   1.277       .  A
O1393      C1400   1.281       .  A
O1394      C1400   1.269       .  A
C1395      C1911   1.476       .  S
C1397      C2244   1.480       .  S
C1398      C1827   1.483       .  S
C1399      C1813   1.474       .  S
C1400      C1841   1.487       .  S
Zn1401     O1405   1.924       .  S
Zn1401     O1406   2.026       .  S
Zn1401     O1410   1.988       .  S
Zn1401     O1417   1.972       .  S
Zn1402     O1405   1.907       .  S
Zn1402     O1407   1.985       .  S
Zn1402     O1409   2.018       .  S
Zn1402     O1413   1.982       .  S
Zn1403     O1405   1.937       .  S
Zn1403     O1408   2.041       .  S
Zn1403     O1411   2.034       .  S
Zn1403     O1414   1.986       .  S
Zn1404     O1405   1.970       .  S
Zn1404     O1412   2.063       .  S
Zn1404     O1415   2.040       .  S
Zn1404     O1416   2.056       .  S
O1406      C1418   1.273       .  A
O1407      C1419   1.272       .  A
O1408      C1420   1.278       .  A
O1409      C1418   1.274       .  A
O1410      C1420   1.272       .  A
O1411      C1419   1.276       .  A
O1412      C1421   1.279       .  A
O1413      C1422   1.272       .  A
O1414      C1421   1.270       .  A
O1415      C1422   1.276       .  A
O1416      C1423   1.279       .  A
O1417      C1423   1.271       .  A
C1418      C1995   1.486       .  S
C1419      C1785   1.480       .  S
C1420      C1796   1.480       .  S
C1421      C2062   1.483       .  S
C1422      C1866   1.477       .  S
C1423      C1768   1.478       .  S
Zn1424     O1428   1.920       .  S
Zn1424     O1429   2.036       .  S
Zn1424     O1433   2.018       .  S
Zn1424     O1440   1.998       .  S
Zn1425     O1428   1.923       .  S
Zn1425     O1430   1.966       .  S
Zn1425     O1432   2.015       .  S
Zn1425     O1436   1.992       .  S
Zn1426     O1428   1.966       .  S
Zn1426     O1431   2.044       .  S
Zn1426     O1434   2.073       .  S
Zn1426     O1437   2.075       .  S
Zn1427     O1428   1.937       .  S
Zn1427     O1435   1.979       .  S
Zn1427     O1438   2.041       .  S
Zn1427     O1439   2.033       .  S
O1429      C1441   1.277       .  A
O1430      C1442   1.269       .  A
O1431      C1443   1.278       .  A
O1432      C1441   1.272       .  A
O1433      C1443   1.277       .  A
O1434      C1442   1.282       .  A
O1435      C1444   1.270       .  A
O1436      C1445   1.271       .  A
O1437      C1444   1.280       .  A
O1438      C1445   1.278       .  A
O1439      C1446   1.277       .  A
O1440      C1446   1.274       .  A
C1441      C1925   1.484       .  S
C1443      C1810   1.489       .  S
C1444      C2009   1.492       .  S
C1445      C1754   1.479       .  S
C1446      C1771   1.476       .  S
Zn1447     O1452   1.970       .  S
Zn1447     O1456   2.014       .  S
Zn1447     O1463   1.993       .  S
Zn1448     O1453   2.068       .  S
Zn1448     O1455   2.061       .  S
Zn1448     O1459   2.078   1_556  S
Zn1449     O1451   1.918       .  S
Zn1449     O1454   2.013   1_545  S
Zn1449     O1457   1.998       .  S
Zn1449     O1460   1.979       .  S
Zn1450     O1451   1.944   1_565  S
Zn1450     O1458   2.046       .  S
Zn1450     O1461   1.974   1_565  S
Zn1450     O1462   2.063       .  S
O1452      C1464   1.272   1_565  A
O1455      C1464   1.279       .  A
O1456      C1466   1.272   1_556  A
O1457      C1465   1.272       .  A
O1458      C1467   1.279       .  A
O1460      C1467   1.271   1_545  A
O1461      C1468   1.270       .  A
O1463      C1469   1.270       .  A
C1464      C1698   1.486       .  S
C1465      C1743   1.488       .  S
C1466      C1726   1.486       .  S
C1467      C1712   1.476       .  S
C1468      C2188   1.493       .  S
C1469      C1897   1.489       .  S
Zn1470     O1474   1.945       .  S
Zn1470     O1475   2.044       .  S
Zn1470     O1479   1.991   1_565  S
Zn1470     O1486   2.059       .  S
Zn1471     O1474   1.908       .  S
Zn1471     O1476   1.992   1_565  S
Zn1471     O1478   1.985       .  S
Zn1471     O1482   2.023       .  S
Zn1472     O1474   1.964   1_545  S
Zn1472     O1477   2.066       .  S
Zn1472     O1480   2.047       .  S
Zn1472     O1483   2.065       .  S
Zn1473     O1474   1.920       .  S
Zn1473     O1481   1.971       .  S
Zn1473     O1484   2.005       .  S
Zn1473     O1485   1.966       .  S
O1475      C1487   1.278       .  A
O1476      C1488   1.273       .  A
O1477      C1489   1.279       .  A
O1478      C1487   1.272       .  A
O1479      C1489   1.270       .  A
O1480      C1488   1.278       .  A
O1481      C1490   1.270   1_565  A
O1482      C1491   1.275       .  A
O1483      C1490   1.280       .  A
O1484      C1491   1.270       .  A
O1485      C1492   1.269       .  A
O1486      C1492   1.281       .  A
C1487      C1701   1.475       .  S
C1488      C1684   1.477       .  S
C1489      C2118   1.480       .  S
C1490      C1715   1.478       .  S
C1491      C1673   1.480       .  S
C1492      C1967   1.479       .  S
Zn1493     O1497   1.925   1_556  S
Zn1493     O1498   2.001       .  S
Zn1493     O1502   1.983       .  S
Zn1493     O1509   2.014   1_455  S
Zn1494     O1499   2.084       .  S
Zn1494     O1501   2.066       .  S
Zn1494     O1505   2.071       .  S
Zn1495     O1497   1.934   1_656  S
Zn1495     O1500   2.016       .  S
Zn1495     O1503   1.969   1_655  S
Zn1495     O1506   2.029       .  S
Zn1496     O1504   1.991       .  S
Zn1496     O1507   1.955       .  S
Zn1496     O1508   1.983       .  S
O1498      C1510   1.272   1_556  A
O1500      C1512   1.274       .  A
O1502      C1512   1.272   1_455  A
O1503      C1511   1.269       .  A
O1504      C1513   1.269       .  A
O1505      C1514   1.282       .  A
O1507      C1514   1.268   1_655  A
O1508      C1515   1.269       .  A
C1510      C1740   1.487       .  S
C1511      C1824   1.493       .  S
C1512      C1628   1.484   1_655  S
C1513      C2289   1.489       .  S
C1514      C1645   1.483       .  S
C1515      C1659   1.468       .  S
Zn1516     O1520   1.935       .  S
Zn1516     O1521   1.985   1_455  S
Zn1516     O1525   2.034       .  S
Zn1516     O1532   2.025       .  S
Zn1517     O1520   1.969   1_655  S
Zn1517     O1522   2.077       .  S
Zn1517     O1524   2.095       .  S
Zn1517     O1528   2.080       .  S
Zn1518     O1520   1.925       .  S
Zn1518     O1523   2.003       .  S
Zn1518     O1526   1.958       .  S
Zn1518     O1529   2.016       .  S
Zn1519     O1520   1.902       .  S
Zn1519     O1527   1.998       .  S
Zn1519     O1530   1.969   1_455  S
Zn1519     O1531   1.969       .  S
O1521      C1533   1.270       .  A
O1522      C1534   1.283       .  A
O1523      C1535   1.272       .  A
O1524      C1533   1.283       .  A
O1525      C1535   1.277       .  A
O1526      C1534   1.269   1_455  A
O1527      C1536   1.271       .  A
O1528      C1537   1.281       .  A
O1529      C1536   1.271       .  A
O1530      C1537   1.270       .  A
O1531      C1538   1.270       .  A
O1532      C1538   1.276       .  A
C1533      C2202   1.491       .  S
C1534      C1642   1.488       .  S
C1535      C1883   1.481       .  S
C1536      C1687   1.478       .  S
C1537      C1614   1.486       .  S
C1538      C1631   1.471       .  S
Zn1539     O1543   1.967   1_556  S
Zn1539     O1544   2.065       .  S
Zn1539     O1548   2.045   1_556  S
Zn1539     O1555   2.055       .  S
Zn1540     O1543   1.914   1_556  S
Zn1540     O1545   1.986       .  S
Zn1540     O1547   1.967       .  S
Zn1540     O1551   1.990       .  S
Zn1541     O1546   1.960       .  S
Zn1541     O1549   2.054       .  S
Zn1541     O1552   2.050       .  S
Zn1542     O1550   1.979       .  S
Zn1542     O1553   1.995       .  S
Zn1542     O1554   1.982       .  S
O1544      C1556   1.279       .  A
O1545      C1557   1.271       .  A
O1546      C1558   1.268       .  A
O1547      C1556   1.269       .  A
O1550      C1559   1.270       .  A
O1551      C1560   1.270   1_556  A
O1552      C1559   1.279       .  A
O1554      C1561   1.270       .  A
C1556      C1589   1.471       .  S
C1557      C1757   1.491       .  S
C1558      C2076   1.474       .  S
C1559      C1603   1.482       .  S
C1560      C1656   1.469       .  S
C1561      C1729   1.485       .  S
Zn1562     O1566   1.939       .  S
Zn1562     O1567   1.995       .  S
Zn1562     O1571   2.065       .  S
Zn1562     O1578   2.049       .  S
Zn1563     O1566   1.965       .  S
Zn1563     O1568   2.068       .  S
Zn1563     O1570   2.073       .  S
Zn1563     O1574   2.040       .  S
Zn1564     O1566   1.913       .  S
Zn1564     O1569   1.968       .  S
Zn1564     O1572   1.973       .  S
Zn1564     O1575   2.014       .  S
Zn1565     O1566   1.902       .  S
Zn1565     O1573   2.031       .  S
Zn1565     O1576   1.974       .  S
Zn1565     O1577   1.985       .  S
O1567      C1579   1.270       .  A
O1568      C1580   1.280       .  A
O1569      C1581   1.270       .  A
O1570      C1579   1.280       .  A
O1571      C1581   1.282       .  A
O1572      C1580   1.270       .  A
O1573      C1582   1.275       .  A
O1574      C1583   1.277       .  A
O1575      C1582   1.271       .  A
O1576      C1583   1.272       .  A
O1577      C1584   1.271       .  A
O1578      C1584   1.280       .  A
C1579      C2023   1.482       .  S
C1580      C1600   1.482       .  S
C1581      C1799   1.483       .  S
C1582      C1617   1.490       .  S
C1583      C1670   1.471       .  S
C1584      C1586   1.483       .  S
C1585      C1586   1.408       .  A
C1585      C1590   1.407       .  A
C1585      H1592   1.084       .  S
C1586      C1587   1.413       .  A
C1587      C1588   1.395       .  A
C1587      N1594   1.429       .  S
C1588      C1589   1.400       .  A
C1588      H1593   1.085       .  S
C1589      C1590   1.408       .  A
C1590      N1591   1.429       .  S
N1591      O1595   1.262       .  A
N1591      O1596   1.262       .  A
N1594      O1598   1.262       .  A
N1594      O1597   1.261       .  A
C1599      C1600   1.404       .  A
C1599      C1604   1.398       .  A
C1599      H1606   1.085       .  S
C1600      C1601   1.414       .  A
C1601      C1602   1.409       .  A
C1601      N1608   1.433       .  S
C1602      C1603   1.407       .  A
C1602      H1607   1.084       .  S
C1603      C1604   1.413       .  A
C1604      N1605   1.435       .  S
N1605      O1609   1.263       .  A
N1605      O1610   1.262       .  A
N1608      O1612   1.262       .  A
N1608      O1611   1.262       .  A
C1613      C1614   1.407       .  A
C1613      C1618   1.398   1_545  A
C1613      H1620   1.084       .  S
C1614      C1615   1.410       .  A
C1615      C1616   1.407   1_545  A
C1615      N1622   1.429       .  S
C1616      C1617   1.411       .  A
C1616      H1621   1.084       .  S
C1617      C1618   1.411       .  A
C1618      N1619   1.430       .  S
N1619      O1623   1.262       .  A
N1619      O1624   1.262       .  A
N1622      O1626   1.262       .  A
N1622      O1625   1.262       .  A
C1627      C1628   1.407       .  A
C1627      C1632   1.396       .  A
C1627      H1634   1.084       .  S
C1628      C1629   1.416   1_455  A
C1629      C1630   1.401   1_655  A
C1629      N1636   1.430       .  S
C1630      C1631   1.402       .  A
C1630      H1635   1.085       .  S
C1631      C1632   1.410       .  A
C1632      N1633   1.436       .  S
N1633      O1637   1.263       .  A
N1633      O1638   1.262       .  A
N1636      O1640   1.262       .  A
N1636      O1639   1.261   1_655  A
C1641      C1642   1.413   1_455  A
C1641      C1646   1.399       .  A
C1641      H1648   1.083       .  S
C1642      C1643   1.409       .  A
C1643      C1644   1.404       .  A
C1643      N1650   1.434       .  S
C1644      C1645   1.413   1_655  A
C1644      H1649   1.084       .  S
C1645      C1646   1.406       .  A
C1646      N1647   1.433       .  S
N1647      O1651   1.262       .  A
N1647      O1652   1.262       .  A
N1650      O1654   1.263       .  A
N1650      O1653   1.262       .  A
C1655      C1660   1.395   1_565  A
C1655      H1662   1.084       .  S
C1656      C1657   1.414   1_554  A
C1657      C1658   1.399   1_565  A
C1657      N1664   1.434       .  S
C1658      H1663   1.084       .  S
C1659      C1660   1.409       .  A
C1660      N1661   1.430       .  S
N1661      O1665   1.262       .  A
N1661      O1666   1.262       .  A
N1664      O1668   1.263       .  A
N1664      O1667   1.262       .  A
C1669      C1670   1.400       .  A
C1669      C1674   1.393   1_655  A
C1669      H1676   1.085       .  S
C1670      C1671   1.409       .  A
C1671      C1672   1.404   1_655  A
C1671      N1678   1.429       .  S
C1672      C1673   1.408       .  A
C1672      H1677   1.084       .  S
C1673      C1674   1.408       .  A
C1674      N1675   1.427       .  S
N1675      O1679   1.262       .  A
N1675      O1680   1.261       .  A
N1678      O1682   1.262       .  A
N1678      O1681   1.262       .  A
C1683      C1684   1.404       .  A
C1683      C1688   1.405       .  A
C1683      H1690   1.084       .  S
C1684      C1685   1.411       .  A
C1685      C1686   1.396       .  A
C1685      N1692   1.432       .  S
C1686      C1687   1.402       .  A
C1686      H1691   1.085       .  S
C1687      C1688   1.414       .  A
C1688      N1689   1.430       .  S
N1689      O1693   1.262       .  A
N1689      O1694   1.262       .  A
N1692      O1696   1.262       .  A
N1692      O1695   1.262       .  A
C1697      C1698   1.406   1_565  A
C1697      C1702   1.393       .  A
C1697      H1704   1.084       .  S
C1698      C1699   1.417       .  A
C1699      C1700   1.409       .  A
C1699      N1706   1.433       .  S
C1700      C1701   1.404   1_545  A
C1700      H1705   1.084       .  S
C1701      C1702   1.406       .  A
C1702      N1703   1.431       .  S
N1703      O1707   1.261       .  A
N1703      O1708   1.262       .  A
N1706      O1710   1.262       .  A
N1706      O1709   1.262       .  A
C1711      C1712   1.405   1_545  A
C1711      C1716   1.407       .  A
C1711      H1718   1.084       .  S
C1712      C1713   1.410       .  A
C1713      C1714   1.395       .  A
C1713      N1720   1.431       .  S
C1714      C1715   1.404   1_565  A
C1714      H1719   1.084       .  S
C1715      C1716   1.412       .  A
C1716      N1717   1.430       .  S
N1717      O1721   1.262       .  A
N1717      O1722   1.262       .  A
N1720      O1724   1.262       .  A
N1720      O1723   1.262       .  A
C1725      C1730   1.400   1_455  A
C1725      H1732   1.084       .  S
C1726      C1727   1.417   1_554  A
C1727      C1728   1.405   1_455  A
C1727      N1734   1.431       .  S
C1728      H1733   1.084       .  S
C1729      C1730   1.416       .  A
C1730      N1731   1.437       .  S
N1731      O1735   1.263       .  A
N1731      O1736   1.263       .  A
N1734      O1737   1.262       .  A
C1739      C1740   1.407   1_556  A
C1739      C1744   1.406       .  A
C1739      H1746   1.084       .  S
C1741      C1742   1.404       .  A
C1741      N1748   1.429       .  S
C1742      C1743   1.408       .  A
C1742      H1747   1.084       .  S
C1744      N1745   1.433       .  S
N1745      O1750   1.262       .  A
N1748      O1751   1.262       .  A
C1753      C1754   1.407       .  A
C1753      C1758   1.403       .  A
C1753      H1760   1.084       .  S
C1754      C1755   1.408       .  A
C1755      C1756   1.404       .  A
C1755      N1762   1.437       .  S
C1756      C1757   1.412       .  A
C1756      H1761   1.083       .  S
C1757      C1758   1.411       .  A
N1759      O1763   1.262       .  A
N1759      O1764   1.262       .  A
N1762      O1766   1.262       .  A
N1762      O1765   1.263       .  A
C1767      C1768   1.403       .  A
C1767      C1772   1.395       .  A
C1767      H1774   1.085       .  S
C1768      C1769   1.413       .  A
C1769      C1770   1.406       .  A
C1769      N1776   1.431       .  S
C1770      C1771   1.405       .  A
C1770      H1775   1.084       .  S
C1771      C1772   1.408       .  A
C1772      N1773   1.430       .  S
N1773      O1777   1.260       .  A
N1773      O1778   1.262       .  A
N1776      O1780   1.262       .  A
N1776      O1779   1.262       .  A
C1781      C1782   1.403       .  A
C1781      C1786   1.407       .  A
C1781      H1788   1.084       .  S
C1782      C1783   1.412       .  A
C1783      C1784   1.394       .  A
C1783      N1790   1.431       .  S
C1784      C1785   1.403       .  A
C1784      H1789   1.085       .  S
C1785      C1786   1.418       .  A
C1786      N1787   1.435       .  S
N1787      O1791   1.262       .  A
N1787      O1792   1.262       .  A
N1790      O1794   1.262       .  A
C1795      C1796   1.410       .  A
C1795      C1800   1.400       .  A
C1795      H1802   1.084       .  S
C1796      C1797   1.411       .  A
C1797      C1798   1.404       .  A
C1797      N1804   1.437       .  S
C1798      C1799   1.411       .  A
C1798      H1803   1.084       .  S
C1799      C1800   1.404       .  A
C1800      N1801   1.428       .  S
N1801      O1805   1.262       .  A
N1801      O1806   1.262       .  A
N1804      O1808   1.263       .  A
N1804      O1807   1.263       .  A
C1809      C1810   1.408       .  A
C1809      C1814   1.403       .  A
C1809      H1816   1.084       .  S
C1810      C1811   1.415       .  A
C1811      C1812   1.404       .  A
C1811      N1818   1.431       .  S
C1812      C1813   1.402       .  A
C1812      H1817   1.084       .  S
C1813      C1814   1.409       .  A
C1814      N1815   1.433       .  S
N1815      O1819   1.263       .  A
N1815      O1820   1.262       .  A
N1818      O1822   1.262       .  A
N1818      O1821   1.262       .  A
C1823      C1824   1.412       .  A
C1823      C1828   1.402       .  A
C1823      H1830   1.084       .  S
C1824      C1825   1.413       .  A
C1825      C1826   1.413       .  A
C1826      C1827   1.410       .  A
C1826      H1831   1.084       .  S
C1827      C1828   1.403       .  A
C1828      N1829   1.432       .  S
N1829      O1833   1.262       .  A
N1829      O1834   1.262       .  A
N1832      O1836   1.262       .  A
N1832      O1835   1.262       .  A
C1837      C1838   1.411       .  A
C1837      C1842   1.398       .  A
C1837      H1844   1.082       .  S
C1838      C1839   1.408       .  A
C1839      C1840   1.404       .  A
C1839      N1846   1.435       .  S
C1840      C1841   1.414       .  A
C1840      H1845   1.083       .  S
C1841      C1842   1.407       .  A
C1842      N1843   1.432       .  S
N1843      O1847   1.262       .  A
N1843      O1848   1.262       .  A
N1846      O1850   1.263       .  A
N1846      O1849   1.262       .  A
C1851      C1852   1.408       .  A
C1851      C1856   1.404       .  A
C1851      H1858   1.084       .  S
C1852      C1853   1.417       .  A
C1853      C1854   1.394       .  A
C1853      N1860   1.434       .  S
C1854      C1855   1.402       .  A
C1854      H1859   1.084       .  S
C1855      C1856   1.411       .  A
C1856      N1857   1.429       .  S
N1857      O1861   1.261       .  A
N1857      O1862   1.261       .  A
N1860      O1864   1.262       .  A
N1860      O1863   1.262       .  A
C1865      C1866   1.403       .  A
C1865      C1870   1.404       .  A
C1865      H1872   1.084       .  S
C1866      C1867   1.412       .  A
C1867      C1868   1.395       .  A
C1867      N1874   1.432       .  S
C1868      C1869   1.402       .  A
C1868      H1873   1.084       .  S
C1869      C1870   1.415       .  A
C1870      N1871   1.429       .  S
N1871      O1875   1.262       .  A
N1871      O1876   1.262       .  A
N1874      O1878   1.262       .  A
N1874      O1877   1.262       .  A
C1879      C1880   1.402       .  A
C1879      C1884   1.404       .  A
C1879      H1886   1.084       .  S
C1880      C1881   1.417       .  A
C1881      C1882   1.399       .  A
C1881      N1888   1.428       .  S
C1882      C1883   1.399       .  A
C1882      H1887   1.084       .  S
C1883      C1884   1.418       .  A
C1884      N1885   1.434       .  S
N1885      O1889   1.262       .  A
N1885      O1890   1.262       .  A
N1888      O1892   1.262       .  A
N1888      O1891   1.262       .  A
C1893      C1894   1.402       .  A
C1893      C1898   1.404       .  A
C1893      H1900   1.084       .  S
C1894      C1895   1.421       .  A
C1895      C1896   1.404       .  A
C1895      N1902   1.430       .  S
C1896      C1897   1.400       .  A
C1897      C1898   1.419       .  A
C1898      N1899   1.431       .  S
N1899      O1903   1.262       .  A
N1899      O1904   1.262       .  A
N1902      O1906   1.262       .  A
N1902      O1905   1.262   1_556  A
C1907      C1908   1.403       .  A
C1907      C1912   1.399       .  A
C1907      H1914   1.084       .  S
C1908      C1909   1.416       .  A
C1909      C1910   1.401       .  A
C1909      N1916   1.433       .  S
C1910      C1911   1.401       .  A
C1910      H1915   1.084       .  S
C1911      C1912   1.411       .  A
C1912      N1913   1.429       .  S
N1913      O1917   1.262       .  A
N1913      O1918   1.262       .  A
N1916      O1920   1.262       .  A
N1916      O1919   1.262       .  A
C1921      C1922   1.401       .  A
C1921      C1926   1.395       .  A
C1921      H1928   1.085       .  S
C1922      C1923   1.412       .  A
C1923      C1924   1.408       .  A
C1923      N1930   1.433       .  S
C1924      C1925   1.408       .  A
C1924      H1929   1.084       .  S
C1925      C1926   1.408       .  A
C1926      N1927   1.428       .  S
N1927      O1931   1.262       .  A
N1927      O1932   1.261       .  A
N1930      O1934   1.262       .  A
N1930      O1933   1.263       .  A
C1935      C1936   1.410       .  A
C1935      C1940   1.403       .  A
C1935      H1942   1.085       .  S
C1936      C1937   1.405       .  A
C1937      C1938   1.399       .  A
C1937      N1944   1.429       .  S
C1938      C1939   1.410       .  A
C1938      H1943   1.086       .  S
C1939      C1940   1.405       .  A
C1940      N1941   1.429       .  S
N1941      O1945   1.262       .  A
N1941      O1946   1.262       .  A
N1944      O1948   1.262       .  A
N1944      O1947   1.262       .  A
C1949      C1950   1.405       .  A
C1949      C1954   1.404       .  A
C1949      H1956   1.085       .  S
C1950      C1951   1.404       .  A
C1951      C1952   1.395       .  A
C1951      N1958   1.432       .  S
C1952      C1953   1.409       .  A
C1952      H1957   1.084       .  S
C1953      C1954   1.412       .  A
C1954      N1955   1.429       .  S
N1955      O1959   1.262       .  A
N1955      O1960   1.262       .  A
N1958      O1962   1.262       .  A
N1958      O1961   1.262       .  A
C1963      C1964   1.409       .  A
C1963      C1968   1.400       .  A
C1963      H1970   1.086       .  S
C1964      C1965   1.405       .  A
C1965      C1966   1.399       .  A
C1965      N1972   1.429       .  S
C1966      C1967   1.410       .  A
C1966      H1971   1.086       .  S
C1967      C1968   1.406       .  A
C1968      N1969   1.431       .  S
N1969      O1973   1.262       .  A
N1969      O1974   1.262       .  A
N1972      O1976   1.262       .  A
N1972      O1975   1.262       .  A
C1977      C1978   1.402       .  A
C1977      C1982   1.397       .  A
C1977      H1984   1.084       .  S
C1978      C1979   1.419       .  A
C1979      C1980   1.409       .  A
C1979      N1986   1.431       .  S
C1980      C1981   1.404       .  A
C1980      H1985   1.084       .  S
C1981      C1982   1.416       .  A
C1982      N1983   1.434       .  S
N1983      O1987   1.262       .  A
N1983      O1988   1.262       .  A
N1986      O1990   1.262       .  A
N1986      O1989   1.262       .  A
C1991      C1992   1.405       .  A
C1991      C1996   1.407       .  A
C1991      H1998   1.084       .  S
C1992      C1993   1.415       .  A
C1993      C1994   1.399       .  A
C1993      N2000   1.433       .  S
C1994      C1995   1.402       .  A
C1994      H1999   1.084       .  S
C1995      C1996   1.416       .  A
C1996      N1997   1.430       .  S
N1997      O2001   1.262       .  A
N1997      O2002   1.262       .  A
N2000      O2004   1.262       .  A
N2000      O2003   1.262       .  A
C2005      C2006   1.413       .  A
C2005      C2010   1.409       .  A
C2005      H2012   1.084       .  S
C2006      C2007   1.414       .  A
C2007      C2008   1.399       .  A
C2007      N2014   1.431       .  S
C2008      C2009   1.408       .  A
C2008      H2013   1.084       .  S
C2009      C2010   1.410       .  A
C2010      N2011   1.428       .  S
N2011      O2015   1.262       .  A
N2011      O2016   1.262       .  A
N2014      O2018   1.262       .  A
N2014      O2017   1.262       .  A
C2019      C2020   1.410       .  A
C2019      C2024   1.403       .  A
C2019      H2026   1.085       .  S
C2020      C2021   1.407       .  A
C2021      C2022   1.407       .  A
C2021      N2028   1.429       .  S
C2022      C2023   1.410       .  A
C2022      H2027   1.084       .  S
C2023      C2024   1.405       .  A
C2024      N2025   1.429       .  S
N2025      O2029   1.262       .  A
N2025      O2030   1.262       .  A
N2028      O2032   1.262       .  A
N2028      O2031   1.262       .  A
C2033      C2034   1.412       .  A
C2033      C2038   1.396       .  A
C2033      H2040   1.084       .  S
C2034      C2035   1.410       .  A
C2035      C2036   1.399       .  A
C2035      N2042   1.429       .  S
C2036      C2037   1.406       .  A
C2036      H2041   1.085       .  S
C2037      C2038   1.402       .  A
C2038      N2039   1.430       .  S
N2039      O2043   1.262       .  A
N2039      O2044   1.262       .  A
N2042      O2046   1.262       .  A
C2047      C2048   1.405       .  A
C2047      C2052   1.401       .  A
C2047      H2054   1.084       .  S
C2048      C2049   1.411       .  A
C2049      C2050   1.390       .  A
C2049      N2056   1.429       .  S
C2050      C2051   1.403       .  A
C2050      H2055   1.084       .  S
C2051      C2052   1.413       .  A
C2052      N2053   1.430       .  S
N2053      O2057   1.262       .  A
N2053      O2058   1.262       .  A
N2056      O2060   1.262       .  A
N2056      O2059   1.261       .  A
C2061      C2062   1.412       .  A
C2061      C2066   1.405       .  A
C2061      H2068   1.053       .  S
C2062      C2063   1.409       .  A
C2063      C2064   1.409       .  A
C2063      N2070   1.435       .  S
C2064      C2065   1.411       .  A
C2064      H2069   1.061       .  S
C2065      C2066   1.403       .  A
C2066      N2067   1.433       .  S
N2067      O2071   1.261       .  A
N2067      O2072   1.263       .  A
N2070      O2074   1.263       .  A
N2070      O2073   1.262       .  A
C2075      C2076   1.406       .  A
C2075      C2080   1.398       .  A
C2075      H2082   1.085       .  S
C2076      C2077   1.406       .  A
C2077      C2078   1.404       .  A
C2077      N2084   1.434       .  S
C2078      C2079   1.413       .  A
C2078      H2083   1.084       .  S
C2079      C2080   1.412       .  A
C2080      N2081   1.436       .  S
N2081      O2085   1.263       .  A
N2081      O2086   1.263       .  A
N2084      O2088   1.263       .  A
N2084      O2087   1.262       .  A
C2089      C2090   1.408       .  A
C2089      C2094   1.411       .  A
C2089      H2096   1.084       .  S
C2090      C2091   1.415       .  A
C2091      C2092   1.397       .  A
C2091      N2098   1.435       .  S
C2092      C2093   1.402       .  A
C2092      H2097   1.084       .  S
C2093      C2094   1.415       .  A
C2094      N2095   1.433       .  S
N2095      O2099   1.262       .  A
N2095      O2100   1.262       .  A
N2098      O2102   1.263       .  A
N2098      O2101   1.262       .  A
C2103      C2104   1.402       .  A
C2103      C2108   1.398   1_545  A
C2103      H2110   1.084       .  S
C2104      C2105   1.421       .  A
C2105      C2106   1.405   1_545  A
C2105      N2112   1.430       .  S
C2106      C2107   1.400       .  A
C2106      H2111   1.084       .  S
C2107      C2108   1.417       .  A
C2108      N2109   1.430       .  S
N2109      O2113   1.262       .  A
N2109      O2114   1.261       .  A
N2112      O2116   1.262       .  A
N2112      O2115   1.262       .  A
C2117      C2118   1.408       .  A
C2117      C2122   1.406       .  A
C2117      H2124   1.084       .  S
C2118      C2119   1.404       .  A
C2119      C2120   1.403       .  A
C2119      N2126   1.429       .  S
C2120      C2121   1.411       .  A
C2120      H2125   1.084       .  S
C2121      C2122   1.408       .  A
C2122      N2123   1.429       .  S
N2123      O2127   1.262       .  A
N2123      O2128   1.262       .  A
N2126      O2130   1.262       .  A
N2126      O2129   1.262       .  A
C2131      C2132   1.411       .  A
C2131      C2136   1.397       .  A
C2131      H2138   1.084       .  S
C2132      C2133   1.406       .  A
C2133      C2134   1.399       .  A
C2133      N2140   1.432       .  S
C2134      C2135   1.412       .  A
C2134      H2139   1.083       .  S
C2135      C2136   1.406       .  A
C2136      N2137   1.429       .  S
N2137      O2141   1.262       .  A
N2137      O2142   1.262       .  A
N2140      O2144   1.262       .  A
N2140      O2143   1.262       .  A
C2145      C2146   1.403       .  A
C2145      C2150   1.398       .  A
C2145      H2152   1.084       .  S
C2146      C2147   1.411       .  A
C2147      C2148   1.395       .  A
C2147      N2154   1.433       .  S
C2148      C2149   1.405       .  A
C2148      H2153   1.084       .  S
C2149      C2150   1.413       .  A
C2150      N2151   1.429       .  S
N2151      O2155   1.262       .  A
N2151      O2156   1.262       .  A
N2154      O2158   1.262       .  A
N2154      O2157   1.262       .  A
C2159      C2160   1.403       .  A
C2159      C2164   1.396       .  A
C2159      H2166   1.084       .  S
C2160      C2161   1.416       .  A
C2161      C2162   1.409       .  A
C2161      N2168   1.430       .  S
C2162      C2163   1.406       .  A
C2162      H2167   1.084       .  S
C2163      C2164   1.415       .  A
C2164      N2165   1.434       .  S
N2165      O2169   1.262       .  A
N2165      O2170   1.262       .  A
N2168      O2172   1.262       .  A
N2168      O2171   1.262       .  A
C2173      C2174   1.410       .  A
C2173      C2178   1.403   1_565  A
C2173      H2180   1.085       .  S
C2174      C2175   1.412       .  A
C2175      C2176   1.412   1_565  A
C2175      N2182   1.435       .  S
C2176      C2177   1.410       .  A
C2176      H2181   1.084       .  S
C2177      C2178   1.405       .  A
C2178      N2179   1.430       .  S
N2179      O2183   1.262       .  A
N2179      O2184   1.262   1_545  A
N2182      O2186   1.263       .  A
N2182      O2185   1.262   1_565  A
C2187      C2188   1.408       .  A
C2187      C2192   1.400       .  A
C2187      H2194   1.084       .  S
C2188      C2189   1.410       .  A
C2189      C2190   1.412       .  A
C2189      N2196   1.430       .  S
C2190      C2191   1.415       .  A
C2190      H2195   1.084       .  S
C2191      C2192   1.414       .  A
C2192      N2193   1.433       .  S
N2193      O2197   1.262       .  A
N2193      O2198   1.262       .  A
N2196      O2200   1.262       .  A
N2196      O2199   1.262       .  A
C2201      C2202   1.410       .  A
C2201      C2206   1.405       .  A
C2201      H2208   1.084       .  S
C2202      C2203   1.410       .  A
C2203      C2204   1.410       .  A
C2203      N2210   1.431       .  S
C2204      C2205   1.410       .  A
C2204      H2209   1.084       .  S
C2205      C2206   1.408       .  A
C2206      N2207   1.434       .  S
N2207      O2211   1.262       .  A
N2207      O2212   1.262       .  A
N2210      O2214   1.262       .  A
N2210      O2213   1.262       .  A
C2215      C2216   1.411       .  A
C2215      C2220   1.411       .  A
C2215      H2222   1.083       .  S
C2216      C2217   1.416       .  A
C2217      C2218   1.401       .  A
C2217      N2224   1.434       .  S
C2218      C2219   1.405       .  A
C2218      H2223   1.084       .  S
C2219      C2220   1.412       .  A
C2220      N2221   1.428       .  S
N2221      O2225   1.261       .  A
N2221      O2226   1.262       .  A
N2224      O2228   1.262       .  A
N2224      O2227   1.263       .  A
C2229      C2230   1.404       .  A
C2229      C2234   1.404       .  A
C2229      H2236   1.084       .  S
C2230      C2231   1.414       .  A
C2231      C2232   1.397       .  A
C2231      N2238   1.433       .  S
C2232      C2233   1.401       .  A
C2232      H2237   1.084       .  S
C2233      C2234   1.413       .  A
C2234      N2235   1.430       .  S
N2235      O2239   1.262       .  A
N2235      O2240   1.262       .  A
N2238      O2242   1.262       .  A
N2238      O2241   1.262       .  A
C2243      C2244   1.404       .  A
C2243      C2248   1.400   1_455  A
C2243      H2250   1.084       .  S
C2244      C2245   1.416       .  A
C2245      C2246   1.406   1_455  A
C2245      N2252   1.434       .  S
C2246      C2247   1.403       .  A
C2246      H2251   1.084       .  S
C2247      C2248   1.411       .  A
C2248      N2249   1.430       .  S
N2249      O2253   1.262       .  A
N2249      O2254   1.262       .  A
N2252      O2256   1.262       .  A
N2252      O2255   1.262       .  A
C2257      C2258   1.404       .  A
C2257      C2262   1.406       .  A
C2257      H2264   1.084       .  S
C2258      C2259   1.407       .  A
C2259      C2260   1.397       .  A
C2259      N2266   1.432       .  S
C2260      C2261   1.405       .  A
C2260      H2265   1.085       .  S
C2261      C2262   1.413       .  A
C2262      N2263   1.431       .  S
N2263      O2267   1.262       .  A
N2263      O2268   1.262       .  A
N2266      O2270   1.262       .  A
C2271      C2272   1.407       .  A
C2271      C2276   1.406       .  A
C2271      H2278   1.084       .  S
C2272      C2273   1.407       .  A
C2273      C2274   1.392       .  A
C2273      N2280   1.428       .  S
C2274      C2275   1.403       .  A
C2274      H2279   1.085       .  S
C2275      C2276   1.411       .  A
C2276      N2277   1.430       .  S
N2277      O2281   1.262       .  A
N2277      O2282   1.262       .  A
N2280      O2284   1.262       .  A
N2280      O2283   1.262       .  A
C2285      C2286   1.409       .  A
C2285      C2290   1.402       .  A
C2285      H2292   1.084       .  S
C2286      C2287   1.407       .  A
C2287      C2288   1.405       .  A
C2287      N2294   1.432       .  S
C2288      C2289   1.413       .  A
C2288      H2293   1.084       .  S
C2289      C2290   1.412       .  A
C2290      N2291   1.437       .  S
N2291      O2295   1.263       .  A
N2291      O2296   1.263       .  A
N2294      O2298   1.262       .  A
N2294      O2297   1.262       .  A
C2299      C2300   1.405       .  A
C2299      C2304   1.399       .  A
C2299      H2306   1.084       .  S
C2300      C2301   1.410       .  A
C2301      C2302   1.398       .  A
C2301      N2308   1.433       .  S
C2302      C2303   1.403       .  A
C2302      H2307   1.084       .  S
C2303      C2304   1.408       .  A
C2304      N2305   1.430       .  S
N2305      O2309   1.262       .  A
N2305      O2310   1.262       .  A
N2308      O2312   1.262       .  A
N2308      O2311   1.262       .  A
C2313      C2314   1.403       .  A
C2313      C2318   1.406       .  A
C2313      H2320   1.084       .  S
C2314      C2315   1.414       .  A
C2315      C2316   1.405       .  A
C2315      N2322   1.430       .  S
C2316      C2317   1.402       .  A
C2316      H2321   1.084       .  S
C2317      C2318   1.415       .  A
C2318      N2319   1.432       .  S
N2319      O2323   1.262       .  A
N2319      O2324   1.262       .  A
N2322      O2326   1.262       .  A
N2322      O2325   1.262       .  A
C2327      C2328   1.416       .  A
C2327      C2332   1.408   1_655  A
C2327      H2334   1.084       .  S
C2328      C2329   1.411   1_655  A
C2329      C2330   1.400       .  A
C2329      N2336   1.429       .  S
C2330      C2331   1.408       .  A
C2330      H2335   1.085       .  S
C2331      C2332   1.406       .  A
C2332      N2333   1.428       .  S
N2333      O2337   1.262       .  A
N2333      O2338   1.262       .  A
N2336      O2340   1.262       .  A
N2336      O2339   1.262       .  A
