geometry optimzed in LAMMPS
_audit_creation_date              2020-12-01 
_audit_creation_method            'lammps2cif' 
_symmetry_space_group_name_H-M    'P1' 
_symmetry_Int_Tables_number       1 
_symmetry_cell_setting            triclinic 
loop_ 
_symmetry_equiv_pos_as_xyz 
  x,y,z 
_cell_length_a                    28.38724684 
_cell_length_b                    26.050202071959863 
_cell_length_c                    38.65421722280426 
_cell_angle_alpha                 89.99972099305208 
_cell_angle_beta                  90.00069014241805 
_cell_angle_gamma                 114.23762289756871 
loop_ 
_atom_site_label 
_atom_site_type_symbol 
_atom_site_fract_x 
_atom_site_fract_y 
_atom_site_fract_z 
_atom_site_charge 
C1          C  0.15925848  0.32746019  0.59155810     0.49400
H2          H  0.16039552  0.32687186  0.56282096     0.00400
C3          C  0.15634672  0.32896127  0.65902176     0.49500
H4          H  0.15500996  0.32955618  0.68777877     0.00400
C5          C  0.13256258  0.26867319  0.60809935    -0.13300
C6          C  0.21286792  0.35349284  0.60871577    -0.13100
C7          C  0.13011107  0.36124359  0.60640952    -0.13400
C8          C  0.13095172  0.26995196  0.64345856    -0.13400
C9          C  0.21101434  0.35433891  0.64406085    -0.13000
C10         C  0.12861780  0.36156691  0.64178658    -0.13300
C11         C  0.15628481  0.32907576  0.87106366     0.49400
H12         H  0.15493669  0.32965264  0.84230659     0.00400
C13         C  0.15921391  0.32762984  0.93852771     0.49500
H14         H  0.16036161  0.32705865  0.96726487     0.00400
C15         C  0.12857805  0.36170830  0.88829771    -0.13300
C16         C  0.13087537  0.27007642  0.88663873    -0.13100
C17         C  0.21095952  0.35444927  0.88601339    -0.13400
C18         C  0.13007262  0.36141609  0.92367514    -0.13400
C19         C  0.13249766  0.26883299  0.92199909    -0.13000
C20         C  0.21281849  0.35363534  0.92135942    -0.13300
C21         C  0.97132956  0.49511446  0.73132271     0.48800
H22         H  0.97150518  0.49517418  0.70254393     0.00400
C23         C  0.97133207  0.49505162  0.79874583     0.49500
H24         H  0.97151392  0.49505115  0.82752450     0.00400
C25         C  0.99732054  0.05389052  0.74735942    -0.13300
C26         C  0.41727779  0.46902697  0.74735778    -0.13100
C27         C  0.00021729  0.46250688  0.74729347    -0.13400
C28         C  0.99732203  0.05386263  0.78275777    -0.13400
C29         C  0.41727701  0.46899442  0.78271533    -0.13000
C30         C  0.00021430  0.46247537  0.78272309    -0.13300
C31         C  0.30887768  0.13387921  0.37106608     0.49400
H32         H  0.31022139  0.13330135  0.34230893     0.00400
C33         C  0.30595800  0.13532726  0.43853037     0.49500
H34         H  0.30481433  0.13589922  0.46726760     0.00400
C35         C  0.33658299  0.10124312  0.38829823    -0.13300
C36         C  0.33429264  0.19287840  0.38664050    -0.13100
C37         C  0.25420551  0.10851081  0.38601873    -0.13400
C38         C  0.33509383  0.10153735  0.42367569    -0.13400
C39         C  0.33267489  0.19412291  0.42200090    -0.13000
C40         C  0.25235129  0.10932526  0.42136467    -0.13300
C41         C  0.30590627  0.13549178  0.09155945     0.49400
H42         H  0.30476495  0.13608336  0.06282246     0.00400
C43         C  0.30882657  0.13398285  0.15902270     0.49500
H44         H  0.31016760  0.13338474  0.18777957     0.00400
C45         C  0.33261168  0.19427659  0.10810243    -0.13300
C46         C  0.25229884  0.10946506  0.10872014    -0.13100
C47         C  0.33504919  0.10169935  0.10640569    -0.13400
C48         C  0.33422765  0.19299332  0.14346147    -0.13400
C49         C  0.25415632  0.10861517  0.14406515    -0.13000
C50         C  0.33654549  0.10137116  0.14178274    -0.13300
C51         C  0.49383837  0.46783140  0.23132635     0.49400
H52         H  0.49366588  0.46777296  0.20254757     0.00400
C53         C  0.49382736  0.46789113  0.29874955     0.49500
H54         H  0.49364232  0.46789025  0.32752822     0.00400
C55         C  0.46785997  0.40905750  0.24736141    -0.13300
C56         C  0.04788820  0.49392433  0.24736473    -0.13100
C57         C  0.46494358  0.50043268  0.24729517    -0.13400
C58         C  0.46785238  0.40908505  0.28275970    -0.13400
C59         C  0.04788381  0.49395491  0.28272228    -0.13000
C60         C  0.46494191  0.50046253  0.28272476    -0.13300
O61         O  0.46158809  0.35146805  0.05438165    -0.76900
O62         O  0.06694420  0.08290663  0.97804248    -0.61600
O63         O  0.49516988  0.46884340  0.04448992    -1.08200
C64         C  0.35234914  0.43179181  0.96919193     1.10000
O65         O  0.00349571  0.11167780  0.97572306    -0.74800
O66         O  0.41552628  0.05827468  0.01140999    -0.62400
Ni67       Ni  0.02387294  0.41882559  0.06147467     1.34900
C68         C  0.40181335  0.03045142  0.03924706     0.88700
O69         O  0.09516646  0.05463869  0.03839245    -0.75400
O70         O  0.08885889  0.48078827  0.07128009    -0.85600
C71         C  0.05014793  0.11969336  0.97042766     0.88300
O72         O  0.04954223  0.40485140  0.01866060    -0.63900
O73         O  0.37624541  0.48236181  0.95879665    -0.83100
C74         C  0.06327371  0.43268383  0.99082658     0.89100
C75         C  0.11275362  0.03136211  0.06088833     1.10700
H76         H  0.47500836  0.47501162  0.96556994     0.42500
O77         O  0.46992141  0.49430719  0.98560454    -1.05800
O78         O  0.40604875  0.48434699  0.04480533    -0.62500
Ni79       Ni  0.43205040  0.43795491  0.01873577     1.26300
O80         O  0.05905217  0.47880523  0.98528478    -0.62700
O81         O  0.36992496  0.40852278  0.99169992    -0.75000
C82         C  0.41493644  0.34345567  0.05967920     0.88500
O83         O  0.39814003  0.38023920  0.05205171    -0.62100
Ni84       Ni  0.44122367  0.04431855  0.96860657     1.27400
Ni85       Ni  0.03304156  0.02519190  0.01135437     1.26100
H86         H  0.49008419  0.48813824  0.06452442     0.43000
O87         O  0.00358232  0.11148485  0.55438048    -0.76900
O88         O  0.39822837  0.38004754  0.47804308    -0.61600
O89         O  0.46999728  0.49411569  0.54448580    -1.08200
C90         C  0.11282158  0.03116726  0.46919405     1.10000
O91         O  0.46167730  0.35127652  0.47572789    -0.74800
O92         O  0.04964504  0.40467924  0.51141595    -0.62400
Ni93       Ni  0.44129692  0.04412788  0.56147271     1.34900
C94         C  0.06335174  0.43249926  0.53925448     0.88700
O95         O  0.37000040  0.40832097  0.53838953    -0.75400
O96         O  0.37630665  0.48217553  0.57126951    -0.85600
C97         C  0.41502555  0.34326115  0.47043007     0.88300
O98         O  0.41562863  0.05810310  0.51865833    -0.63900
O99         O  0.08892394  0.48060133  0.45879277    -0.83100
C100        C  0.40189665  0.03027062  0.49082438     0.89100
C101        C  0.35241309  0.43159977  0.56088378     1.10700
H102        H  0.49016164  0.48794910  0.46556780     0.42500
O103        O  0.49524812  0.46865232  0.48560175    -1.05800
O104        O  0.05911408  0.47860666  0.54480515    -0.62500
Ni105      Ni  0.03311850  0.02499900  0.51873596     1.26300
O106        O  0.40611656  0.48415086  0.48527856    -0.62700
O107        O  0.09524468  0.05443344  0.49170241    -0.75000
C108        C  0.05023378  0.11949626  0.55967825     0.88500
O109        O  0.06702854  0.08271117  0.55205303    -0.62100
Ni110      Ni  0.02394950  0.41863468  0.46861158     1.27400
Ni111      Ni  0.43212856  0.43776319  0.51135462     1.26100
H112        H  0.47508127  0.47482120  0.56452176     0.43000
C113        C  0.16289086  0.06338648  0.07550473    -0.09300
C114        C  0.20443295  0.08612335  0.08941885    -0.10900
C115        C  0.38067012  0.29030270  0.07416258    -0.09300
C116        C  0.35674833  0.24574095  0.08829226    -0.10900
C117        C  0.37922924  0.05252843  0.06540846    -0.09300
C118        C  0.35929956  0.07416133  0.08474653    -0.10900
C119        C  0.36179707  0.24132821  0.16487841    -0.14600
C120        C  0.38621037  0.27920396  0.18413184     0.09500
C121        C  0.41538177  0.32237390  0.20719415     0.11400
C122        C  0.43992454  0.36035033  0.22634738    -0.15400
C123        C  0.36403747  0.07623616  0.16216420    -0.14600
C124        C  0.38701512  0.05881940  0.18177716     0.09500
C125        C  0.41388846  0.04037378  0.20593540     0.11400
C126        C  0.43700655  0.02380115  0.22596142    -0.15400
C127        C  0.09371496  0.01820455  0.22637186    -0.14600
C128        C  0.13059418  0.03884988  0.20763815     0.09500
C129        C  0.17294530  0.06328235  0.18508615     0.11400
C130        C  0.20935271  0.08412305  0.16598712    -0.15400
C131        C  0.20448892  0.08596021  0.44066325    -0.09300
C132        C  0.16295114  0.06320134  0.45457618    -0.10900
C133        C  0.35682413  0.24555936  0.44182540    -0.09300
C134        C  0.38075915  0.29010911  0.45595792    -0.10900
C135        C  0.37930220  0.05235086  0.46466006    -0.09300
C136        C  0.35936004  0.07398740  0.44532631    -0.10900
C137        C  0.36185988  0.24124553  0.36523512    -0.14600
C138        C  0.38625843  0.27916720  0.34599994     0.09500
C139        C  0.41540657  0.32239653  0.32295510     0.11400
C140        C  0.43992813  0.36039560  0.30380335    -0.15400
C141        C  0.43700578  0.02385317  0.30402547    -0.14600
C142        C  0.41389443  0.04039878  0.32406362     0.09500
C143        C  0.38703818  0.05877523  0.34825966     0.11400
C144        C  0.36406973  0.07613893  0.36790444    -0.15400
C145        C  0.20939457  0.08406496  0.36409232    -0.14600
C146        C  0.17297310  0.06326957  0.34499593     0.09500
C147        C  0.13060197  0.03887994  0.32244928     0.11400
C148        C  0.09371363  0.01825105  0.30371780    -0.15400
C149        C  0.08441569  0.17284600  0.95595629    -0.09300
C150        C  0.10835080  0.21739641  0.94182423    -0.10900
C151        C  0.26068307  0.37700183  0.94065661    -0.09300
C152        C  0.30222035  0.39975954  0.95457122    -0.10900
C153        C  0.10580795  0.38896582  0.94532745    -0.09300
C154        C  0.08586739  0.41060299  0.96466196    -0.10900
C155        C  0.37144848  0.44471447  0.80370961    -0.14600
C156        C  0.33455849  0.42408668  0.82243987     0.09500
C157        C  0.29218717  0.39969610  0.84498662     0.11400
C158        C  0.25576755  0.37889859  0.86408438    -0.15400
C159        C  0.02814532  0.43908625  0.80402404    -0.14600
C160        C  0.05125405  0.42253858  0.82406331     0.09500
C161        C  0.07811117  0.40416447  0.84826035     0.11400
C162        C  0.10108383  0.38680589  0.86790536    -0.15400
C163        C  0.10330874  0.22170734  0.86523405    -0.14600
C164        C  0.07891205  0.18378318  0.84599949     0.09500
C165        C  0.04976677  0.14055093  0.82295491     0.11400
C166        C  0.02524704  0.10255089  0.80380281    -0.15400
C167        C  0.08450207  0.17264948  0.57415923    -0.09300
C168        C  0.10842597  0.21721103  0.58828799    -0.10900
C169        C  0.26073193  0.37683986  0.58941254    -0.09300
C170        C  0.30227409  0.39957757  0.57549867    -0.10900
C171        C  0.10585836  0.38878335  0.58475434    -0.09300
C172        C  0.08593072  0.41041966  0.56541729    -0.10900
C173        C  0.10339096  0.22161314  0.66487441    -0.14600
C174        C  0.07898227  0.18373631  0.68412828     0.09500
C175        C  0.04981192  0.14056852  0.70719197     0.11400
C176        C  0.02526549  0.10259539  0.72634609    -0.15400
C177        C  0.37145541  0.44476247  0.72636406    -0.14600
C178        C  0.33457766  0.42411670  0.70762949     0.09500
C179        C  0.29222743  0.39968064  0.68507795     0.11400
C180        C  0.25581934  0.37883568  0.66598028    -0.15400
C181        C  0.02814920  0.43913732  0.72596014    -0.14600
C182        C  0.05126589  0.42255850  0.70593695     0.09500
C183        C  0.07814106  0.40410892  0.68178240     0.11400
C184        C  0.10112181  0.38669377  0.66217106    -0.15400
C185        C  0.15926013  0.82745884  0.59156135     0.49400
H186        H  0.16039773  0.82687057  0.56282422     0.00400
C187        C  0.15634699  0.82895959  0.65902498     0.49500
H188        H  0.15500962  0.82955438  0.68778198     0.00400
C189        C  0.13256213  0.76867206  0.60810235    -0.13300
C190        C  0.21286925  0.85348937  0.60871952    -0.13100
C191        C  0.13011370  0.86124359  0.60641233    -0.13400
C192        C  0.13095032  0.76995047  0.64346155    -0.13400
C193        C  0.21101508  0.85433569  0.64406457    -0.13000
C194        C  0.12861973  0.86156672  0.64178946    -0.13300
C195        C  0.15628221  0.82906854  0.87106048     0.49400
H196        H  0.15493114  0.82964362  0.84230347     0.00400
C197        C  0.15921773  0.82762662  0.93852446     0.49500
H198        H  0.16036822  0.82705710  0.96726158     0.00400
C199        C  0.12857836  0.86170340  0.88829554    -0.13300
C200        C  0.13087288  0.77007030  0.88663718    -0.13100
C201        C  0.21095840  0.85444147  0.88600776    -0.13400
C202        C  0.13007626  0.86141321  0.92367290    -0.13400
C203        C  0.13249819  0.76882924  0.92199750    -0.13000
C204        C  0.21282060  0.85362902  0.92135371    -0.13300
C205        C  0.97133541  0.99511795  0.73132355     0.48800
H206        H  0.97151232  0.99517691  0.70254477     0.00400
C207        C  0.97133508  0.99505675  0.79874673     0.49500
H208        H  0.97151562  0.99505678  0.82752540     0.00400
C209        C  0.99731155  0.55388705  0.74735902    -0.13300
C210        C  0.41728284  0.96903463  0.74735756    -0.13100
C211        C  0.00021892  0.96250700  0.74729574    -0.13400
C212        C  0.99731442  0.55385812  0.78275735    -0.13400
C213        C  0.41728059  0.96900288  0.78271510    -0.13000
C214        C  0.00021436  0.96247626  0.78272535    -0.13300
C215        C  0.30887681  0.63388341  0.37106136     0.49400
H216        H  0.31021999  0.63330717  0.34230417     0.00400
C217        C  0.30595817  0.63532751  0.43852578     0.49500
H218        H  0.30481518  0.63589793  0.46726306     0.00400
C219        C  0.33658301  0.60124687  0.38829185    -0.13300
C220        C  0.33429177  0.69288190  0.38663704    -0.13100
C221        C  0.25420480  0.60851320  0.38601468    -0.13400
C222        C  0.33509425  0.60153902  0.42366934    -0.13400
C223        C  0.33267420  0.69412409  0.42199750    -0.13000
C224        C  0.25235110  0.60932588  0.42136070    -0.13300
C225        C  0.30590545  0.63549525  0.09156534     0.49400
H226        H  0.30476420  0.63608464  0.06282830     0.00400
C227        C  0.30882624  0.63399139  0.15902872     0.49500
H228        H  0.31016731  0.63339524  0.18778562     0.00400
C229        C  0.33260931  0.69428134  0.10810680    -0.13300
C230        C  0.25229812  0.60946789  0.10872592    -0.13100
C231        C  0.33504994  0.60170571  0.10641322    -0.13400
C232        C  0.33422533  0.69300097  0.14346593    -0.13400
C233        C  0.25415604  0.60862037  0.14407098    -0.13000
C234        C  0.33654696  0.60138043  0.14179019    -0.13300
C235        C  0.49383957  0.96784048  0.23132710     0.49400
H236        H  0.49366541  0.96778098  0.20254832     0.00400
C237        C  0.49383220  0.96790219  0.29875021     0.49500
H238        H  0.49364868  0.96790211  0.32752888     0.00400
C239        C  0.46786360  0.90906692  0.24736295    -0.13300
C240        C  0.04789035  0.99393611  0.24736400    -0.13100
C241        C  0.46494338  0.00043978  0.24729638    -0.13400
C242        C  0.46785790  0.90909536  0.28276127    -0.13400
C243        C  0.04788785  0.99396766  0.28272159    -0.13000
C244        C  0.46494372  0.00047080  0.28272599    -0.13300
O245        O  0.46158856  0.85146536  0.05438330    -0.76900
O246        O  0.06694202  0.58290977  0.97804679    -0.61600
O247        O  0.49517065  0.96884013  0.04448579    -1.08200
C248        C  0.35235339  0.93178247  0.96918339     1.10000
O249        O  0.00349544  0.61168437  0.97573146    -0.74800
O250        O  0.41552795  0.55828259  0.01142051    -0.62400
Ni251      Ni  0.02387439  0.91882362  0.06147189     1.34900
C252        C  0.40181436  0.53045699  0.03925663     0.88700
O253        O  0.09516774  0.55463878  0.03839509    -0.75400
O254        O  0.08886178  0.98078639  0.07127402    -0.85600
C255        C  0.05014635  0.61969729  0.97043294     0.88300
O256        O  0.04953931  0.90484479  0.01865733    -0.63900
O257        O  0.37624990  0.98235142  0.95878659    -0.83100
C258        C  0.06327551  0.93267938  0.99082434     0.89100
C259        C  0.11275289  0.53136286  0.06089285     1.10700
H260        H  0.47501334  0.97500428  0.96556486     0.42500
O261        O  0.46992452  0.99430062  0.98559850    -1.05800
O262        O  0.40604943  0.98434283  0.04479757    -0.62500
Ni263      Ni  0.43205247  0.93794983  0.01873037     1.26300
O264        O  0.05905766  0.97880294  0.98528298    -0.62700
O265        O  0.36992815  0.90851558  0.99169339    -0.75000
C266        C  0.41493661  0.84345413  0.05967839     0.88500
O267        O  0.39814072  0.88023663  0.05204728    -0.62100
Ni268      Ni  0.44122127  0.54432725  0.96861556     1.27400
Ni269      Ni  0.03304041  0.52519532  0.01135866     1.26100
H270        H  0.49008362  0.98813524  0.06452018     0.43000
O271        O  0.00358281  0.61149095  0.55437479    -0.76900
O272        O  0.39822865  0.88004533  0.47804389    -0.61600
O273        O  0.46999900  0.99410969  0.54448860    -1.08200
C274        C  0.11282166  0.53116872  0.46919208     1.10000
O275        O  0.46167722  0.85127366  0.47572678    -0.74800
O276        O  0.04964256  0.90467363  0.51141820    -0.62400
Ni277      Ni  0.44129536  0.54413594  0.56146657     1.34900
C278        C  0.06335273  0.93249591  0.53925576     0.88700
O279        O  0.37000132  0.90831537  0.53839164    -0.75400
O280        O  0.37631001  0.98216588  0.57127641    -0.85600
C281        C  0.41502551  0.84325914  0.47042955     0.88300
O282        O  0.41563092  0.55810983  0.51865042    -0.63900
O283        O  0.08892586  0.98059862  0.45879638    -0.83100
C284        C  0.40189748  0.53027387  0.49081784     0.89100
C285        C  0.35241540  0.93159171  0.56088833     1.10700
H286        H  0.49016163  0.98794549  0.46556956     0.42500
O287        O  0.49524849  0.96864895  0.48560332    -1.05800
O288        O  0.05911803  0.97860517  0.54480535    -0.62500
Ni289      Ni  0.03311826  0.52500234  0.51873443     1.26300
O290        O  0.40611777  0.98414927  0.48528252    -0.62700
O291        O  0.09524647  0.55443412  0.49170218    -0.75000
C292        C  0.05023297  0.61950004  0.55967600     0.88500
O293        O  0.06702742  0.58271423  0.55205183    -0.62100
Ni294      Ni  0.02395033  0.91863180  0.46861309     1.27400
Ni295      Ni  0.43212937  0.93775901  0.51135652     1.26100
H296        H  0.47508411  0.97481405  0.56452333     0.43000
C297        C  0.16289015  0.56338674  0.07550988    -0.09300
C298        C  0.20443203  0.58612400  0.08942452    -0.10900
C299        C  0.38066909  0.79030345  0.07416359    -0.09300
C300        C  0.35674638  0.74574373  0.08829507    -0.10900
C301        C  0.37923071  0.55253288  0.06541864    -0.09300
C302        C  0.35930072  0.57416665  0.08475563    -0.10900
C303        C  0.36179381  0.74133787  0.16488165    -0.14600
C304        C  0.38620725  0.77921438  0.18413461     0.09500
C305        C  0.41538025  0.82238397  0.20719668     0.11400
C306        C  0.43992529  0.86035980  0.22634964    -0.15400
C307        C  0.36404086  0.57624790  0.16217200    -0.14600
C308        C  0.38702052  0.55882956  0.18178234     0.09500
C309        C  0.41389497  0.54037845  0.20593662     0.11400
C310        C  0.43701156  0.52379993  0.22596022    -0.15400
C311        C  0.09371390  0.51819411  0.22637410    -0.14600
C312        C  0.13059411  0.53884295  0.20764182     0.09500
C313        C  0.17294584  0.56328094  0.18509129     0.11400
C314        C  0.20935308  0.58412566  0.16599282    -0.15400
C315        C  0.20448890  0.58596009  0.44065995    -0.09300
C316        C  0.16295144  0.56320216  0.45457374    -0.10900
C317        C  0.35682344  0.74555920  0.44182317    -0.09300
C318        C  0.38075871  0.79010808  0.45595650    -0.10900
C319        C  0.37930324  0.55235181  0.46465228    -0.09300
C320        C  0.35936088  0.57398810  0.44531862    -0.10900
C321        C  0.36186038  0.74125066  0.36523296    -0.14600
C322        C  0.38626081  0.77917458  0.34599959     0.09500
C323        C  0.41541090  0.82240651  0.32295666     0.11400
C324        C  0.43993339  0.86040645  0.30380559    -0.15400
C325        C  0.43700631  0.52384901  0.30402343    -0.14600
C326        C  0.41389574  0.54039886  0.32405967     0.09500
C327        C  0.38703911  0.55877932  0.34825327     0.11400
C328        C  0.36407009  0.57614406  0.36789702    -0.15400
C329        C  0.20939350  0.58406453  0.36408902    -0.14600
C330        C  0.17297060  0.56326464  0.34499435     0.09500
C331        C  0.13059770  0.53886965  0.32244982     0.11400
C332        C  0.09370868  0.51823816  0.30371925    -0.15400
C333        C  0.08441368  0.67284745  0.95595888    -0.09300
C334        C  0.10834991  0.71739517  0.94182445    -0.10900
C335        C  0.26068694  0.87699348  0.94064890    -0.09300
C336        C  0.30222492  0.89974962  0.95456270    -0.10900
C337        C  0.10581206  0.88896252  0.94532598    -0.09300
C338        C  0.08587068  0.91059885  0.96466046    -0.10900
C339        C  0.37145077  0.94472166  0.80370808    -0.14600
C340        C  0.33455852  0.92408957  0.82243603     0.09500
C341        C  0.29218481  0.89969262  0.84498021     0.11400
C342        C  0.25576470  0.87889142  0.86407721    -0.15400
C343        C  0.02814194  0.93908427  0.80402718    -0.14600
C344        C  0.05124964  0.92253451  0.82406589     0.09500
C345        C  0.07810791  0.90415903  0.84826115     0.11400
C346        C  0.10108232  0.88680018  0.86790447    -0.15400
C347        C  0.10330284  0.72170036  0.86523412    -0.14600
C348        C  0.07890376  0.68377639  0.84600020     0.09500
C349        C  0.04975695  0.64054524  0.82295555     0.11400
C350        C  0.02523755  0.60254621  0.80380280    -0.15400
C351        C  0.08450018  0.67265119  0.57415977    -0.09300
C352        C  0.10842412  0.71721088  0.58829042    -0.10900
C353        C  0.26073380  0.87683340  0.58941667    -0.09300
C354        C  0.30227636  0.89956914  0.57550303    -0.10900
C355        C  0.10586071  0.88878245  0.58475655    -0.09300
C356        C  0.08593242  0.91041720  0.56541878    -0.10900
C357        C  0.10338553  0.72161208  0.66487683    -0.14600
C358        C  0.07897344  0.68373538  0.68412985     0.09500
C359        C  0.04980038  0.64056735  0.70719261     0.11400
C360        C  0.02525381  0.60259326  0.72634609    -0.15400
C361        C  0.37146083  0.94476944  0.72636336    -0.14600
C362        C  0.33458187  0.92412117  0.70762998     0.09500
C363        C  0.29222948  0.89968085  0.68508049     0.11400
C364        C  0.25582012  0.87883316  0.66598407    -0.15400
C365        C  0.02814971  0.93913456  0.72596358    -0.14600
C366        C  0.05126619  0.92255510  0.70594062     0.09500
C367        C  0.07814146  0.90410626  0.68178569     0.11400
C368        C  0.10112276  0.88669254  0.66217386    -0.15400
C369        C  0.65925845  0.32746019  0.59155810     0.49400
H370        H  0.66039549  0.32687185  0.56282096     0.00400
C371        C  0.65634662  0.32896127  0.65902175     0.49500
H372        H  0.65500981  0.32955617  0.68777877     0.00400
C373        C  0.63256253  0.26867320  0.60809935    -0.13300
C374        C  0.71286788  0.35349284  0.60871577    -0.13100
C375        C  0.63011109  0.36124364  0.60640951    -0.13400
C376        C  0.63095166  0.26995197  0.64345856    -0.13400
C377        C  0.71101426  0.35433891  0.64406085    -0.13000
C378        C  0.62861773  0.36156692  0.64178658    -0.13300
C379        C  0.65628481  0.32907574  0.87106366     0.49400
H380        H  0.65493669  0.32965263  0.84230660     0.00400
C381        C  0.65921391  0.32762984  0.93852772     0.49500
H382        H  0.66036168  0.32705865  0.96726488     0.00400
C383        C  0.62857807  0.36170830  0.88829771    -0.13300
C384        C  0.63087545  0.27007640  0.88663873    -0.13100
C385        C  0.71095949  0.35444930  0.88601339    -0.13400
C386        C  0.63007259  0.36141608  0.92367515    -0.13400
C387        C  0.63249771  0.26883298  0.92199909    -0.13000
C388        C  0.71281848  0.35363538  0.92135942    -0.13300
C389        C  0.47132956  0.49511448  0.73132273     0.48800
H390        H  0.47150521  0.49517419  0.70254394     0.00400
C391        C  0.47133201  0.49505163  0.79874586     0.49500
H392        H  0.47151380  0.49505115  0.82752453     0.00400
C393        C  0.49732060  0.05389052  0.74735942    -0.13300
C394        C  0.91727778  0.46902692  0.74735777    -0.13100
C395        C  0.50021723  0.46250686  0.74729349    -0.13400
C396        C  0.49732200  0.05386264  0.78275777    -0.13400
C397        C  0.91727702  0.46899441  0.78271532    -0.13000
C398        C  0.50021426  0.46247538  0.78272312    -0.13300
C399        C  0.80887782  0.13387920  0.37106608     0.49400
H400        H  0.81022160  0.13330135  0.34230894     0.00400
C401        C  0.80595808  0.13532726  0.43853037     0.49500
H402        H  0.80481437  0.13589922  0.46726760     0.00400
C403        C  0.83658309  0.10124311  0.38829825    -0.13300
C404        C  0.83429278  0.19287840  0.38664051    -0.13100
C405        C  0.75420562  0.10851078  0.38601871    -0.13400
C406        C  0.83509393  0.10153735  0.42367571    -0.13400
C407        C  0.83267499  0.19412291  0.42200090    -0.13000
C408        C  0.75235137  0.10932525  0.42136465    -0.13300
C409        C  0.80590621  0.13549180  0.09155945     0.49400
H410        H  0.80476485  0.13608337  0.06282246     0.00400
C411        C  0.80882652  0.13398285  0.15902271     0.49500
H412        H  0.81016753  0.13338474  0.18777958     0.00400
C413        C  0.83261164  0.19427659  0.10810243    -0.13300
C414        C  0.75229881  0.10946509  0.10872014    -0.13100
C415        C  0.83504909  0.10169932  0.10640570    -0.13400
C416        C  0.83422767  0.19299332  0.14346147    -0.13400
C417        C  0.75415628  0.10861523  0.14406514    -0.13000
C418        C  0.83654539  0.10137111  0.14178275    -0.13300
C419        C  0.99383835  0.46783141  0.23132635     0.49400
H420        H  0.99366591  0.46777296  0.20254757     0.00400
C421        C  0.99382732  0.46789112  0.29874954     0.49500
H422        H  0.99364226  0.46789025  0.32752821     0.00400
C423        C  0.96785991  0.40905752  0.24736141    -0.13300
C424        C  0.54788822  0.49392433  0.24736472    -0.13100
C425        C  0.96494354  0.50043268  0.24729516    -0.13400
C426        C  0.96785228  0.40908507  0.28275969    -0.13400
C427        C  0.54788384  0.49395493  0.28272228    -0.13000
C428        C  0.96494190  0.50046254  0.28272474    -0.13300
O429        O  0.96158814  0.35146799  0.05438166    -0.76900
O430        O  0.56694408  0.08290663  0.97804248    -0.61600
O431        O  0.99516999  0.46884338  0.04448989    -1.08200
C432        C  0.85234917  0.43179180  0.96919194     1.10000
O433        O  0.50349558  0.11167780  0.97572303    -0.74800
O434        O  0.91552622  0.05827463  0.01140996    -0.62400
Ni435      Ni  0.52387292  0.41882563  0.06147467     1.34900
C436        C  0.90181332  0.03045142  0.03924704     0.88700
O437        O  0.59516653  0.05463867  0.03839240    -0.75400
O438        O  0.58885895  0.48078824  0.07128007    -0.85600
C439        C  0.55014781  0.11969336  0.97042765     0.88300
O440        O  0.54954231  0.40485145  0.01866063    -0.63900
O441        O  0.87624535  0.48236184  0.95879671    -0.83100
C442        C  0.56327366  0.43268382  0.99082658     0.89100
C443        C  0.61275367  0.03136211  0.06088832     1.10700
H444        H  0.97500859  0.47501145  0.96556972     0.42500
O445        O  0.96992152  0.49430717  0.98560448    -1.05800
O446        O  0.90604872  0.48434693  0.04480530    -0.62500
Ni447      Ni  0.93205052  0.43795491  0.01873573     1.26300
O448        O  0.55905200  0.47880516  0.98528478    -0.62700
O449        O  0.86992510  0.40852277  0.99169987    -0.75000
C450        C  0.91493651  0.34345566  0.05967920     0.88500
O451        O  0.89814016  0.38023925  0.05205171    -0.62100
Ni452      Ni  0.94122381  0.04431853  0.96860657     1.27400
Ni453      Ni  0.53304154  0.02519193  0.01135439     1.26100
H454        H  0.99008439  0.48813804  0.06452421     0.43000
O455        O  0.50358238  0.11148483  0.55438046    -0.76900
O456        O  0.89822847  0.38004750  0.47804309    -0.61600
O457        O  0.96999731  0.49411570  0.54448581    -1.08200
C458        C  0.61282163  0.03116726  0.46919404     1.10000
O459        O  0.96167743  0.35127653  0.47572789    -0.74800
O460        O  0.54964493  0.40467923  0.51141596    -0.62400
Ni461      Ni  0.94129685  0.04412790  0.56147272     1.34900
C462        C  0.56335164  0.43249924  0.53925449     0.88700
O463        O  0.87000053  0.40832095  0.53838958    -0.75400
O464        O  0.87630657  0.48217556  0.57126946    -0.85600
C465        C  0.91502568  0.34326114  0.47043007     0.88300
O466        O  0.91562876  0.05810312  0.51865830    -0.63900
O467        O  0.58892386  0.48060133  0.45879274    -0.83100
C468        C  0.90189678  0.03027064  0.49082436     0.89100
C469        C  0.85241311  0.43159975  0.56088378     1.10700
H470        H  0.99016163  0.48794908  0.46556778     0.42500
O471        O  0.99524817  0.46865233  0.48560173    -1.05800
O472        O  0.55911399  0.47860665  0.54480517    -0.62500
Ni473      Ni  0.53311860  0.02499902  0.51873596     1.26300
O474        O  0.90611652  0.48415079  0.48527858    -0.62700
O475        O  0.59524471  0.05443347  0.49170236    -0.75000
C476        C  0.55023386  0.11949626  0.55967824     0.88500
O477        O  0.56702866  0.08271121  0.55205302    -0.62100
Ni478      Ni  0.52394939  0.41863466  0.46861158     1.27400
Ni479      Ni  0.93212864  0.43776319  0.51135462     1.26100
H480        H  0.97508128  0.47482122  0.56452177     0.43000
C481        C  0.66289088  0.06338646  0.07550473    -0.09300
C482        C  0.70443297  0.08612331  0.08941884    -0.10900
C483        C  0.88067009  0.29030271  0.07416257    -0.09300
C484        C  0.85674823  0.24574097  0.08829225    -0.10900
C485        C  0.87922913  0.05252840  0.06540845    -0.09300
C486        C  0.85929945  0.07416131  0.08474652    -0.10900
C487        C  0.86179700  0.24132823  0.16487842    -0.14600
C488        C  0.88621032  0.27920397  0.18413185     0.09500
C489        C  0.91538184  0.32237388  0.20719414     0.11400
C490        C  0.93992452  0.36035033  0.22634738    -0.15400
C491        C  0.86403744  0.07623615  0.16216421    -0.14600
C492        C  0.88701518  0.05881942  0.18177714     0.09500
C493        C  0.91388849  0.04037378  0.20593540     0.11400
C494        C  0.93700664  0.02380120  0.22596141    -0.15400
C495        C  0.59371499  0.01820453  0.22637188    -0.14600
C496        C  0.63059420  0.03884986  0.20763816     0.09500
C497        C  0.67294534  0.06328232  0.18508617     0.11400
C498        C  0.70935269  0.08412306  0.16598711    -0.15400
C499        C  0.70448898  0.08596024  0.44066323    -0.09300
C500        C  0.66295122  0.06320135  0.45457618    -0.10900
C501        C  0.85682415  0.24555938  0.44182541    -0.09300
C502        C  0.88075928  0.29010910  0.45595792    -0.10900
C503        C  0.87930227  0.05235084  0.46466007    -0.09300
C504        C  0.85936016  0.07398742  0.44532632    -0.10900
C505        C  0.86185991  0.24124555  0.36523512    -0.14600
C506        C  0.88625858  0.27916718  0.34599995     0.09500
C507        C  0.91540671  0.32239650  0.32295511     0.11400
C508        C  0.93992809  0.36039561  0.30380334    -0.15400
C509        C  0.93700584  0.02385321  0.30402548    -0.14600
C510        C  0.91389441  0.04039877  0.32406359     0.09500
C511        C  0.88703816  0.05877520  0.34825963     0.11400
C512        C  0.86406982  0.07613894  0.36790446    -0.15400
C513        C  0.70939467  0.08406493  0.36409228    -0.14600
C514        C  0.67297309  0.06326959  0.34499595     0.09500
C515        C  0.63060191  0.03887998  0.32244932     0.11400
C516        C  0.59371358  0.01825109  0.30371783    -0.15400
C517        C  0.58441563  0.17284600  0.95595629    -0.09300
C518        C  0.60835088  0.21739639  0.94182424    -0.10900
C519        C  0.76068309  0.37700185  0.94065661    -0.09300
C520        C  0.80222038  0.39975947  0.95457123    -0.10900
C521        C  0.60580787  0.38896579  0.94532744    -0.09300
C522        C  0.58586730  0.41060299  0.96466193    -0.10900
C523        C  0.87144845  0.44471451  0.80370961    -0.14600
C524        C  0.83455841  0.42408671  0.82243985     0.09500
C525        C  0.79218708  0.39969612  0.84498660     0.11400
C526        C  0.75576747  0.37889862  0.86408437    -0.15400
C527        C  0.52814536  0.43908630  0.80402405    -0.14600
C528        C  0.55125402  0.42253857  0.82406334     0.09500
C529        C  0.57811115  0.40416445  0.84826037     0.11400
C530        C  0.60108391  0.38680592  0.86790534    -0.15400
C531        C  0.60330886  0.22170730  0.86523404    -0.14600
C532        C  0.57891202  0.18378319  0.84599949     0.09500
C533        C  0.54976665  0.14055095  0.82295492     0.11400
C534        C  0.52524692  0.10255091  0.80380282    -0.15400
C535        C  0.58450211  0.17264948  0.57415923    -0.09300
C536        C  0.60842606  0.21721102  0.58828799    -0.10900
C537        C  0.76073191  0.37683986  0.58941254    -0.09300
C538        C  0.80227411  0.39957749  0.57549867    -0.10900
C539        C  0.60585844  0.38878342  0.58475430    -0.09300
C540        C  0.58593068  0.41041966  0.56541728    -0.10900
C541        C  0.60339112  0.22161311  0.66487442    -0.14600
C542        C  0.57898243  0.18373629  0.68412829     0.09500
C543        C  0.54981196  0.14056853  0.70719196     0.11400
C544        C  0.52526560  0.10259538  0.72634609    -0.15400
C545        C  0.87145535  0.44476247  0.72636406    -0.14600
C546        C  0.83457757  0.42411672  0.70762951     0.09500
C547        C  0.79222732  0.39968066  0.68507796     0.11400
C548        C  0.75581924  0.37883569  0.66598029    -0.15400
C549        C  0.52814911  0.43913731  0.72596015    -0.14600
C550        C  0.55126577  0.42255850  0.70593695     0.09500
C551        C  0.57814094  0.40410891  0.68178239     0.11400
C552        C  0.60112170  0.38669376  0.66217105    -0.15400
C553        C  0.65926013  0.82745882  0.59156136     0.49400
H554        H  0.66039784  0.82687057  0.56282423     0.00400
C555        C  0.65634694  0.82895959  0.65902498     0.49500
H556        H  0.65500955  0.82955438  0.68778198     0.00400
C557        C  0.63256213  0.76867205  0.60810236    -0.13300
C558        C  0.71286923  0.85348935  0.60871953    -0.13100
C559        C  0.63011368  0.86124356  0.60641233    -0.13400
C560        C  0.63095035  0.76995046  0.64346156    -0.13400
C561        C  0.71101503  0.85433571  0.64406458    -0.13000
C562        C  0.62861965  0.86156668  0.64178945    -0.13300
C563        C  0.65628224  0.82906854  0.87106049     0.49400
H564        H  0.65493125  0.82964362  0.84230347     0.00400
C565        C  0.65921776  0.82762664  0.93852447     0.49500
H566        H  0.66036818  0.82705711  0.96726159     0.00400
C567        C  0.62857836  0.86170339  0.88829554    -0.13300
C568        C  0.63087294  0.77007029  0.88663718    -0.13100
C569        C  0.71095841  0.85444145  0.88600779    -0.13400
C570        C  0.63007627  0.86141322  0.92367289    -0.13400
C571        C  0.63249829  0.76882924  0.92199750    -0.13000
C572        C  0.71282063  0.85362906  0.92135374    -0.13300
C573        C  0.47133547  0.99511795  0.73132355     0.48800
H574        H  0.47151237  0.99517690  0.70254477     0.00400
C575        C  0.47133512  0.99505676  0.79874672     0.49500
H576        H  0.47151568  0.99505678  0.82752540     0.00400
C577        C  0.49731160  0.55388705  0.74735904    -0.13300
C578        C  0.91728279  0.96903459  0.74735756    -0.13100
C579        C  0.50021896  0.96250700  0.74729575    -0.13400
C580        C  0.49731432  0.55385814  0.78275738    -0.13400
C581        C  0.91728053  0.96900289  0.78271510    -0.13000
C582        C  0.50021442  0.96247629  0.78272536    -0.13300
C583        C  0.80887688  0.63388339  0.37106135     0.49400
H584        H  0.81022009  0.63330716  0.34230416     0.00400
C585        C  0.80595818  0.63532750  0.43852577     0.49500
H586        H  0.80481515  0.63589793  0.46726305     0.00400
C587        C  0.83658302  0.60124680  0.38829186    -0.13300
C588        C  0.83429190  0.69288188  0.38663704    -0.13100
C589        C  0.75420483  0.60851324  0.38601466    -0.13400
C590        C  0.83509419  0.60153895  0.42366935    -0.13400
C591        C  0.83267429  0.69412408  0.42199750    -0.13000
C592        C  0.75235112  0.60932592  0.42136068    -0.13300
C593        C  0.80590545  0.63549526  0.09156533     0.49400
H594        H  0.80476414  0.63608465  0.06282830     0.00400
C595        C  0.80882626  0.63399141  0.15902871     0.49500
H596        H  0.81016739  0.63339525  0.18778561     0.00400
C597        C  0.83260935  0.69428134  0.10810680    -0.13300
C598        C  0.75229813  0.60946793  0.10872593    -0.13100
C599        C  0.83504991  0.60170568  0.10641322    -0.13400
C600        C  0.83422538  0.69300098  0.14346592    -0.13400
C601        C  0.75415606  0.60862041  0.14407099    -0.13000
C602        C  0.83654691  0.60138041  0.14179019    -0.13300
C603        C  0.99383956  0.96784047  0.23132710     0.49400
H604        H  0.99366539  0.96778097  0.20254833     0.00400
C605        C  0.99383220  0.96790218  0.29875021     0.49500
H606        H  0.99364862  0.96790210  0.32752889     0.00400
C607        C  0.96786351  0.90906693  0.24736296    -0.13300
C608        C  0.54789036  0.99393616  0.24736400    -0.13100
C609        C  0.96494345  0.00043984  0.24729638    -0.13400
C610        C  0.96785787  0.90909535  0.28276128    -0.13400
C611        C  0.54788784  0.99396771  0.28272159    -0.13000
C612        C  0.96494376  0.00047083  0.28272599    -0.13300
O613        O  0.96158852  0.85146540  0.05438328    -0.76900
O614        O  0.56694192  0.58290977  0.97804679    -0.61600
O615        O  0.99517067  0.96884011  0.04448575    -1.08200
C616        C  0.85235354  0.93178244  0.96918336     1.10000
O617        O  0.50349538  0.61168441  0.97573149    -0.74800
O618        O  0.91552808  0.55828264  0.01142054    -0.62400
Ni619      Ni  0.52387445  0.91882362  0.06147190     1.34900
C620        C  0.90181435  0.53045695  0.03925662     0.88700
O621        O  0.59516768  0.55463875  0.03839511    -0.75400
O622        O  0.58886182  0.98078641  0.07127405    -0.85600
C623        C  0.55014627  0.61969730  0.97043294     0.88300
O624        O  0.54953943  0.90484481  0.01865734    -0.63900
O625        O  0.87625010  0.98235139  0.95878656    -0.83100
C626        C  0.56327553  0.93267938  0.99082433     0.89100
C627        C  0.61275291  0.53136284  0.06089283     1.10700
H628        H  0.97501353  0.97500404  0.96556466     0.42500
O629        O  0.96992463  0.99430057  0.98559847    -1.05800
O630        O  0.90604954  0.98434291  0.04479759    -0.62500
Ni631      Ni  0.93205250  0.93794981  0.01873035     1.26300
O632        O  0.55905767  0.97880295  0.98528299    -0.62700
O633        O  0.86992823  0.90851555  0.99169338    -0.75000
C634        C  0.91493660  0.84345414  0.05967840     0.88500
O635        O  0.89814067  0.88023661  0.05204729    -0.62100
Ni636      Ni  0.94122129  0.54432724  0.96861556     1.27400
Ni637      Ni  0.53304031  0.52519533  0.01135870     1.26100
H638        H  0.99008379  0.98813510  0.06451997     0.43000
O639        O  0.50358273  0.61149097  0.55437476    -0.76900
O640        O  0.89822856  0.88004534  0.47804389    -0.61600
O641        O  0.96999889  0.99410968  0.54448860    -1.08200
C642        C  0.61282166  0.53116870  0.46919209     1.10000
O643        O  0.96167715  0.85127366  0.47572679    -0.74800
O644        O  0.54964245  0.90467358  0.51141822    -0.62400
Ni645      Ni  0.94129536  0.54413595  0.56146656     1.34900
C646        C  0.56335276  0.93249591  0.53925576     0.88700
O647        O  0.87000121  0.90831538  0.53839162    -0.75400
O648        O  0.87630991  0.98216590  0.57127640    -0.85600
C649        C  0.91502542  0.84325915  0.47042955     0.88300
O650        O  0.91563110  0.55810990  0.51865037    -0.63900
O651        O  0.58892592  0.98059860  0.45879640    -0.83100
C652        C  0.90189755  0.53027388  0.49081782     0.89100
C653        C  0.85241530  0.93159173  0.56088832     1.10700
H654        H  0.99016157  0.98794544  0.46556954     0.42500
O655        O  0.99524842  0.96864892  0.48560332    -1.05800
O656        O  0.55911821  0.97860524  0.54480533    -0.62500
Ni657      Ni  0.53311823  0.52500234  0.51873443     1.26300
O658        O  0.90611785  0.98414928  0.48528249    -0.62700
O659        O  0.59524652  0.55443411  0.49170222    -0.75000
C660        C  0.55023288  0.61950005  0.55967600     0.88500
O661        O  0.56702733  0.58271424  0.55205184    -0.62100
Ni662      Ni  0.52395035  0.91863181  0.46861309     1.27400
Ni663      Ni  0.93212930  0.93775899  0.51135653     1.26100
H664        H  0.97508398  0.97481405  0.56452333     0.43000
C665        C  0.66289018  0.56338676  0.07550987    -0.09300
C666        C  0.70443206  0.58612398  0.08942452    -0.10900
C667        C  0.88066915  0.79030344  0.07416360    -0.09300
C668        C  0.85674640  0.74574373  0.08829507    -0.10900
C669        C  0.87923068  0.55253287  0.06541862    -0.09300
C670        C  0.85930076  0.57416668  0.08475564    -0.10900
C671        C  0.86179399  0.74133784  0.16488164    -0.14600
C672        C  0.88620741  0.77921435  0.18413460     0.09500
C673        C  0.91538021  0.82238398  0.20719668     0.11400
C674        C  0.93992518  0.86035982  0.22634965    -0.15400
C675        C  0.86404077  0.57624788  0.16217199    -0.14600
C676        C  0.88702042  0.55882955  0.18178235     0.09500
C677        C  0.91389486  0.54037844  0.20593663     0.11400
C678        C  0.93701148  0.52379991  0.22596021    -0.15400
C679        C  0.59371392  0.51819412  0.22637409    -0.14600
C680        C  0.63059417  0.53884294  0.20764184     0.09500
C681        C  0.67294587  0.56328093  0.18509129     0.11400
C682        C  0.70935313  0.58412564  0.16599283    -0.15400
C683        C  0.70448892  0.58596009  0.44065994    -0.09300
C684        C  0.66295148  0.56320210  0.45457375    -0.10900
C685        C  0.85682337  0.74555920  0.44182317    -0.09300
C686        C  0.88075860  0.79010809  0.45595651    -0.10900
C687        C  0.87930320  0.55235181  0.46465231    -0.09300
C688        C  0.85936079  0.57398805  0.44531866    -0.10900
C689        C  0.86186032  0.74125068  0.36523295    -0.14600
C690        C  0.88626069  0.77917462  0.34599958     0.09500
C691        C  0.91541087  0.82240651  0.32295666     0.11400
C692        C  0.93993346  0.86040643  0.30380560    -0.15400
C693        C  0.93700636  0.52384904  0.30402342    -0.14600
C694        C  0.91389578  0.54039886  0.32405966     0.09500
C695        C  0.88703924  0.55877935  0.34825330     0.11400
C696        C  0.86407022  0.57614409  0.36789706    -0.15400
C697        C  0.70939348  0.58406459  0.36408902    -0.14600
C698        C  0.67297057  0.56326466  0.34499436     0.09500
C699        C  0.63059773  0.53886962  0.32244980     0.11400
C700        C  0.59370869  0.51823818  0.30371924    -0.15400
C701        C  0.58441364  0.67284746  0.95595888    -0.09300
C702        C  0.60835003  0.71739515  0.94182446    -0.10900
C703        C  0.76068699  0.87699354  0.94064893    -0.09300
C704        C  0.80222504  0.89974961  0.95456267    -0.10900
C705        C  0.60581201  0.88896249  0.94532596    -0.09300
C706        C  0.58587060  0.91059881  0.96466042    -0.10900
C707        C  0.87145069  0.94472168  0.80370806    -0.14600
C708        C  0.83455843  0.92408960  0.82243601     0.09500
C709        C  0.79218473  0.89969265  0.84498020     0.11400
C710        C  0.75576467  0.87889143  0.86407722    -0.15400
C711        C  0.52814197  0.93908427  0.80402717    -0.14600
C712        C  0.55124970  0.92253452  0.82406587     0.09500
C713        C  0.57810788  0.90415901  0.84826116     0.11400
C714        C  0.60108226  0.88680013  0.86790449    -0.15400
C715        C  0.60330293  0.72170035  0.86523411    -0.14600
C716        C  0.57890380  0.68377639  0.84600020     0.09500
C717        C  0.54975703  0.64054523  0.82295555     0.11400
C718        C  0.52523751  0.60254623  0.80380282    -0.15400
C719        C  0.58450007  0.67265120  0.57415978    -0.09300
C720        C  0.60842402  0.71721089  0.58829042    -0.10900
C721        C  0.76073375  0.87683340  0.58941669    -0.09300
C722        C  0.80227628  0.89956917  0.57550302    -0.10900
C723        C  0.60586070  0.88878242  0.58475654    -0.09300
C724        C  0.58593248  0.91041718  0.56541874    -0.10900
C725        C  0.60338546  0.72161210  0.66487682    -0.14600
C726        C  0.57897332  0.68373541  0.68412984     0.09500
C727        C  0.54980035  0.64056735  0.70719261     0.11400
C728        C  0.52525393  0.60259324  0.72634611    -0.15400
C729        C  0.87146077  0.94476945  0.72636336    -0.14600
C730        C  0.83458178  0.92412119  0.70763000     0.09500
C731        C  0.79222939  0.89968087  0.68508052     0.11400
C732        C  0.75582004  0.87883319  0.66598409    -0.15400
C733        C  0.52814976  0.93913459  0.72596361    -0.14600
C734        C  0.55126615  0.92255510  0.70594061     0.09500
C735        C  0.57814136  0.90410623  0.68178566     0.11400
C736        C  0.60112266  0.88669250  0.66217383    -0.15400
loop_ 
_geom_bond_atom_site_label_1 
_geom_bond_atom_site_label_2 
_geom_bond_distance 
_geom_bond_site_symmetry_2 
_ccdc_geom_bond_type 
C1            H2   1.112       .  S
C1            C7   1.545       .  S
C1            C6   1.539       .  S
C1            C5   1.541       .  S
C3            H4   1.113       .  S
C3            C9   1.529       .  S
C3            C8   1.528       .  S
C3           C10   1.528       .  S
C5            C8   1.368       .  D
C5          C168   1.449       .  S
C6            C9   1.368       .  D
C6          C169   1.447       .  S
C7           C10   1.368       .  D
C7          C171   1.447       .  S
C8          C173   1.440       .  S
C9          C180   1.441       .  S
C10         C184   1.442       .  S
C11          H12   1.113       .  S
C11          C17   1.529       .  S
C11          C16   1.528       .  S
C11          C15   1.528       .  S
C13          H14   1.112       .  S
C13          C19   1.541       .  S
C13          C18   1.545       .  S
C13          C20   1.539       .  S
C15          C18   1.368       .  D
C15         C162   1.441       .  S
C16          C19   1.368       .  D
C16         C163   1.440       .  S
C17          C20   1.368       .  D
C17         C158   1.441       .  S
C18         C153   1.448       .  S
C19         C150   1.449       .  S
C20         C151   1.447       .  S
C21          H22   1.112       .  S
C21          C27   1.532   1_655  S
C21         C394   1.531       .  S
C21         C209   1.531       .  S
C23          H24   1.112       .  S
C23          C30   1.532   1_655  S
C23         C397   1.531       .  S
C23         C212   1.531       .  S
C25         C205   1.531   1_545  S
C25          C28   1.368       .  D
C25         C176   1.440   1_655  S
C26         C389   1.531       .  S
C26          C29   1.367       .  D
C26         C177   1.440       .  S
C27          C30   1.370       .  D
C27         C181   1.441       .  S
C28         C207   1.531   1_545  S
C28         C166   1.440   1_655  S
C29         C391   1.531       .  S
C29         C155   1.441       .  S
C30         C159   1.440       .  S
C31          H32   1.113       .  S
C31          C37   1.529       .  S
C31          C36   1.528       .  S
C31          C35   1.528       .  S
C33          H34   1.112       .  S
C33          C39   1.541       .  S
C33          C38   1.545       .  S
C33          C40   1.539       .  S
C35          C38   1.368       .  D
C35         C144   1.441       .  S
C36          C39   1.368       .  D
C36         C137   1.440       .  S
C37          C40   1.368       .  D
C37         C145   1.441       .  S
C38         C136   1.448       .  S
C39         C133   1.449       .  S
C40         C131   1.447       .  S
C41          H42   1.112       .  S
C41          C47   1.545       .  S
C41          C46   1.539       .  S
C41          C45   1.541       .  S
C43          H44   1.113       .  S
C43          C49   1.529       .  S
C43          C48   1.528       .  S
C43          C50   1.528       .  S
C45          C48   1.368       .  D
C45         C116   1.449       .  S
C46          C49   1.368       .  D
C46         C114   1.447       .  S
C47          C50   1.368       .  D
C47         C118   1.447       .  S
C48         C119   1.440       .  S
C49         C130   1.441       .  S
C50         C123   1.442       .  S
C51          H52   1.112       .  S
C51          C57   1.532       .  S
C51          C55   1.531       .  S
C51         C424   1.531       .  S
C53          H54   1.112       .  S
C53          C58   1.531       .  S
C53          C60   1.532       .  S
C53         C427   1.531       .  S
C55          C58   1.368       .  D
C55         C122   1.440       .  S
C56         C419   1.531   1_455  S
C56          C59   1.367       .  D
C56         C311   1.441       .  S
C57          C60   1.370       .  D
C57         C310   1.441       .  S
C58         C140   1.440       .  S
C59         C421   1.531   1_455  S
C59         C332   1.441       .  S
C60         C325   1.440       .  S
O61          C82   1.270       .  A
O61        Ni435   1.932       .  S
O62          C71   1.268       .  A
O62         Ni85   1.912   1_556  S
O63          H86   0.966       .  S
O63         Ni79   1.914       .  S
O63        Ni435   1.914       .  S
O63        Ni637   1.912       .  S
C64          O81   1.273       .  A
C64          O73   1.274       .  A
C64         C152   1.437       .  S
O65          C71   1.270       .  A
O65        Ni452   1.932   1_455  S
O66          C68   1.266       .  A
O66         Ni84   1.903   1_554  S
Ni67         O70   1.925       .  S
Ni67         O72   1.903       .  S
Ni67        O429   1.932   1_455  S
Ni67        O431   1.914   1_455  S
C68         O262   1.274   1_545  A
C68         C117   1.438       .  S
O69          C75   1.273       .  A
O69         Ni85   1.918       .  S
O70         C259   1.274       .  A
C71         C149   1.439       .  S
O72          C74   1.266   1_554  A
O73        Ni268   1.925       .  S
C74          O80   1.274       .  A
C74         C154   1.438       .  S
C75         O254   1.274   1_545  A
C75         C113   1.437       .  S
H76          O77   0.966       .  S
O77         Ni79   1.912   1_556  S
O77        Ni637   1.914   1_556  S
O77        Ni268   1.914       .  S
O78         C252   1.274       .  A
O78         Ni79   1.937       .  S
Ni79         O83   1.912       .  S
Ni79         O81   1.918   1_554  S
O80        Ni269   1.938   1_556  S
C82          O83   1.268       .  A
C82         C115   1.439       .  S
Ni84        O433   1.932       .  S
Ni84        O257   1.925   1_545  S
Ni84        O261   1.914   1_545  S
Ni85        O264   1.938   1_544  S
Ni85        O615   1.912   1_445  S
Ni85        O629   1.914   1_444  S
O87         C108   1.270       .  A
O87        Ni461   1.932   1_455  S
O88          C97   1.268       .  A
O88        Ni111   1.912       .  S
O89         H112   0.966       .  S
O89        Ni111   1.912       .  S
O89        Ni277   1.914       .  S
O89        Ni657   1.914       .  S
C90         O107   1.273       .  A
C90         O283   1.274   1_545  A
C90         C132   1.437       .  S
O91          C97   1.270       .  A
O91        Ni478   1.932       .  S
O92          C94   1.266       .  A
O92        Ni110   1.903       .  S
Ni93         O98   1.903       .  S
Ni93        O455   1.932       .  S
Ni93        O280   1.925   1_545  S
Ni93        O273   1.914   1_545  S
C94         O104   1.273       .  A
C94         C172   1.438       .  S
O95         C101   1.273       .  A
O95        Ni111   1.918       .  S
O96         C101   1.274       .  A
O96        Ni277   1.925       .  S
C97         C134   1.439       .  S
O98         C100   1.266       .  A
O99         C274   1.274       .  A
O99        Ni110   1.925       .  S
C100        O290   1.274   1_545  A
C100        C135   1.438       .  S
C101        C170   1.437       .  S
H102        O103   0.966       .  S
O103       Ni111   1.914       .  S
O103       Ni657   1.912       .  S
O103       Ni478   1.914       .  S
O104       Ni289   1.937       .  S
Ni105       O109   1.912       .  S
Ni105       O107   1.918       .  S
Ni105       O288   1.937   1_545  S
Ni105       O641   1.914   1_445  S
Ni105       O655   1.912   1_445  S
O106        C284   1.274       .  A
O106       Ni111   1.938       .  S
C108        O109   1.268       .  A
C108        C167   1.439       .  S
Ni110       O459   1.932   1_455  S
Ni110       O471   1.914   1_455  S
C113        C114   1.207       .  T
C115        C116   1.208       .  T
C117        C118   1.208       .  T
C119        C120   1.203       .  T
C120        C121   1.407       .  S
C121        C122   1.203       .  T
C123        C124   1.204       .  T
C124        C125   1.409       .  S
C125        C126   1.204       .  T
C126        C241   1.441       .  S
C127        C240   1.441   1_545  S
C127        C128   1.203       .  T
C128        C129   1.408       .  S
C129        C130   1.203       .  T
C131        C132   1.207       .  T
C133        C134   1.208       .  T
C135        C136   1.208       .  T
C137        C138   1.203       .  T
C138        C139   1.408       .  S
C139        C140   1.203       .  T
C141        C244   1.440       .  S
C141        C142   1.203       .  T
C142        C143   1.409       .  S
C143        C144   1.204       .  T
C145        C146   1.203       .  T
C146        C147   1.408       .  S
C147        C148   1.203       .  T
C148        C243   1.441   1_545  S
C149        C150   1.208       .  T
C151        C152   1.207       .  T
C153        C154   1.208       .  T
C155        C156   1.203       .  T
C156        C157   1.408       .  S
C157        C158   1.203       .  T
C159        C160   1.203       .  T
C160        C161   1.409       .  S
C161        C162   1.204       .  T
C163        C164   1.203       .  T
C164        C165   1.408       .  S
C165        C166   1.203       .  T
C167        C168   1.208       .  T
C169        C170   1.207       .  T
C171        C172   1.208       .  T
C173        C174   1.203       .  T
C174        C175   1.407       .  S
C175        C176   1.203       .  T
C177        C178   1.203       .  T
C178        C179   1.408       .  S
C179        C180   1.203       .  T
C181        C182   1.204       .  T
C182        C183   1.409       .  S
C183        C184   1.204       .  T
C185        H186   1.112       .  S
C185        C191   1.545       .  S
C185        C190   1.539       .  S
C185        C189   1.541       .  S
C187        H188   1.113       .  S
C187        C193   1.529       .  S
C187        C192   1.528       .  S
C187        C194   1.528       .  S
C189        C192   1.368       .  D
C189        C352   1.449       .  S
C190        C193   1.368       .  D
C190        C353   1.447       .  S
C191        C194   1.368       .  D
C191        C355   1.447       .  S
C192        C357   1.440       .  S
C193        C364   1.441       .  S
C194        C368   1.442       .  S
C195        H196   1.113       .  S
C195        C201   1.529       .  S
C195        C200   1.528       .  S
C195        C199   1.528       .  S
C197        H198   1.112       .  S
C197        C203   1.541       .  S
C197        C202   1.545       .  S
C197        C204   1.539       .  S
C199        C202   1.368       .  D
C199        C346   1.441       .  S
C200        C203   1.368       .  D
C200        C347   1.440       .  S
C201        C204   1.368       .  D
C201        C342   1.441       .  S
C202        C337   1.448       .  S
C203        C334   1.449       .  S
C204        C335   1.447       .  S
C205        H206   1.112       .  S
C205        C211   1.532   1_655  S
C205        C578   1.531       .  S
C207        H208   1.112       .  S
C207        C581   1.531       .  S
C207        C214   1.532   1_655  S
C209        C212   1.368       .  D
C209        C360   1.440   1_655  S
C210        C573   1.531       .  S
C210        C213   1.367       .  D
C210        C361   1.440       .  S
C211        C214   1.370       .  D
C211        C365   1.441       .  S
C212        C350   1.440   1_655  S
C213        C575   1.531       .  S
C213        C339   1.441       .  S
C214        C343   1.440       .  S
C215        H216   1.113       .  S
C215        C221   1.529       .  S
C215        C220   1.528       .  S
C215        C219   1.528       .  S
C217        H218   1.112       .  S
C217        C223   1.541       .  S
C217        C222   1.545       .  S
C217        C224   1.539       .  S
C219        C222   1.368       .  D
C219        C328   1.441       .  S
C220        C223   1.368       .  D
C220        C321   1.440       .  S
C221        C224   1.368       .  D
C221        C329   1.441       .  S
C222        C320   1.448       .  S
C223        C317   1.449       .  S
C224        C315   1.447       .  S
C225        H226   1.112       .  S
C225        C231   1.545       .  S
C225        C230   1.539       .  S
C225        C229   1.541       .  S
C227        H228   1.113       .  S
C227        C233   1.529       .  S
C227        C232   1.528       .  S
C227        C234   1.528       .  S
C229        C232   1.368       .  D
C229        C300   1.449       .  S
C230        C233   1.368       .  D
C230        C298   1.447       .  S
C231        C234   1.368       .  D
C231        C302   1.447       .  S
C232        C303   1.440       .  S
C233        C314   1.441       .  S
C234        C307   1.442       .  S
C235        H236   1.112       .  S
C235        C241   1.532   1_565  S
C235        C608   1.531       .  S
C235        C239   1.531       .  S
C237        H238   1.112       .  S
C237        C611   1.531       .  S
C237        C242   1.531       .  S
C237        C244   1.532   1_565  S
C239        C242   1.368       .  D
C239        C306   1.440       .  S
C240        C603   1.531   1_455  S
C240        C243   1.367       .  D
C241        C244   1.370       .  D
C242        C324   1.440       .  S
C243        C605   1.531   1_455  S
O245        C266   1.270       .  A
O245       Ni619   1.932       .  S
O246        C255   1.268       .  A
O246       Ni269   1.912   1_556  S
O247        H270   0.966       .  S
O247       Ni619   1.914       .  S
O247       Ni453   1.912   1_565  S
O247       Ni263   1.914       .  S
C248        O265   1.273       .  A
C248        O257   1.274       .  A
C248        C336   1.437       .  S
O249        C255   1.270       .  A
O249       Ni636   1.932   1_455  S
O250        C252   1.266       .  A
O250       Ni268   1.903   1_554  S
Ni251       O613   1.932   1_455  S
Ni251       O254   1.925       .  S
Ni251       O256   1.903       .  S
Ni251       O615   1.914   1_455  S
C252        C301   1.438       .  S
O253        C259   1.273       .  A
O253       Ni269   1.918       .  S
C255        C333   1.439       .  S
O256        C258   1.266   1_554  A
C258        O264   1.274       .  A
C258        C338   1.438       .  S
C259        C297   1.437       .  S
H260        O261   0.966       .  S
O261       Ni453   1.914   1_566  S
O261       Ni263   1.912   1_556  S
O262       Ni263   1.937       .  S
Ni263       O267   1.912       .  S
Ni263       O265   1.918   1_554  S
C266        O267   1.268       .  A
C266        C299   1.439       .  S
Ni268       O617   1.932       .  S
Ni269       O431   1.912   1_455  S
Ni269       O445   1.914   1_454  S
O271        C292   1.270       .  A
O271       Ni645   1.932   1_455  S
O272        C281   1.268       .  A
O272       Ni295   1.912       .  S
O273        H296   0.966       .  S
O273       Ni295   1.912       .  S
O273       Ni473   1.914   1_565  S
C274        O291   1.273       .  A
C274        C316   1.437       .  S
O275        C281   1.270       .  A
O275       Ni662   1.932       .  S
O276        C278   1.266       .  A
O276       Ni294   1.903       .  S
Ni277       O639   1.932       .  S
Ni277       O282   1.903       .  S
C278        O288   1.273       .  A
C278        C356   1.438       .  S
O279        C285   1.273       .  A
O279       Ni295   1.918       .  S
O280        C285   1.274       .  A
C281        C318   1.439       .  S
O282        C284   1.266       .  A
O283       Ni294   1.925       .  S
C284        C319   1.438       .  S
C285        C354   1.437       .  S
H286        O287   0.966       .  S
O287       Ni295   1.914       .  S
O287       Ni473   1.912   1_565  S
O287       Ni662   1.914       .  S
Ni289       O293   1.912       .  S
Ni289       O291   1.918       .  S
Ni289       O457   1.914   1_455  S
Ni289       O471   1.912   1_455  S
O290       Ni295   1.938       .  S
C292        O293   1.268       .  A
C292        C351   1.439       .  S
Ni294       O643   1.932   1_455  S
Ni294       O655   1.914   1_455  S
C297        C298   1.207       .  T
C299        C300   1.208       .  T
C301        C302   1.208       .  T
C303        C304   1.203       .  T
C304        C305   1.407       .  S
C305        C306   1.203       .  T
C307        C308   1.204       .  T
C308        C309   1.409       .  S
C309        C310   1.204       .  T
C311        C312   1.203       .  T
C312        C313   1.408       .  S
C313        C314   1.203       .  T
C315        C316   1.207       .  T
C317        C318   1.208       .  T
C319        C320   1.208       .  T
C321        C322   1.203       .  T
C322        C323   1.408       .  S
C323        C324   1.203       .  T
C325        C326   1.203       .  T
C326        C327   1.409       .  S
C327        C328   1.204       .  T
C329        C330   1.203       .  T
C330        C331   1.408       .  S
C331        C332   1.203       .  T
C333        C334   1.208       .  T
C335        C336   1.207       .  T
C337        C338   1.208       .  T
C339        C340   1.203       .  T
C340        C341   1.408       .  S
C341        C342   1.203       .  T
C343        C344   1.203       .  T
C344        C345   1.409       .  S
C345        C346   1.204       .  T
C347        C348   1.203       .  T
C348        C349   1.408       .  S
C349        C350   1.203       .  T
C351        C352   1.208       .  T
C353        C354   1.207       .  T
C355        C356   1.208       .  T
C357        C358   1.203       .  T
C358        C359   1.407       .  S
C359        C360   1.203       .  T
C361        C362   1.203       .  T
C362        C363   1.408       .  S
C363        C364   1.203       .  T
C365        C366   1.204       .  T
C366        C367   1.409       .  S
C367        C368   1.204       .  T
C369        H370   1.112       .  S
C369        C375   1.545       .  S
C369        C374   1.539       .  S
C369        C373   1.541       .  S
C371        H372   1.113       .  S
C371        C377   1.529       .  S
C371        C376   1.528       .  S
C371        C378   1.528       .  S
C373        C376   1.368       .  D
C373        C536   1.449       .  S
C374        C377   1.368       .  D
C374        C537   1.447       .  S
C375        C378   1.368       .  D
C375        C539   1.447       .  S
C376        C541   1.440       .  S
C377        C548   1.441       .  S
C378        C552   1.442       .  S
C379        H380   1.113       .  S
C379        C385   1.529       .  S
C379        C384   1.528       .  S
C379        C383   1.528       .  S
C381        H382   1.112       .  S
C381        C387   1.541       .  S
C381        C386   1.545       .  S
C381        C388   1.539       .  S
C383        C386   1.368       .  D
C383        C530   1.441       .  S
C384        C387   1.368       .  D
C384        C531   1.440       .  S
C385        C388   1.368       .  D
C385        C526   1.441       .  S
C386        C521   1.448       .  S
C387        C518   1.449       .  S
C388        C519   1.447       .  S
C389        H390   1.112       .  S
C389        C395   1.532       .  S
C389        C577   1.531       .  S
C391        H392   1.112       .  S
C391        C580   1.531       .  S
C391        C398   1.532       .  S
C393        C573   1.531   1_545  S
C393        C396   1.368       .  D
C393        C544   1.440       .  S
C394        C397   1.367       .  D
C394        C545   1.440       .  S
C395        C398   1.370       .  D
C395        C549   1.441       .  S
C396        C575   1.531   1_545  S
C396        C534   1.440       .  S
C397        C523   1.441       .  S
C398        C527   1.440       .  S
C399        H400   1.113       .  S
C399        C405   1.529       .  S
C399        C404   1.528       .  S
C399        C403   1.528       .  S
C401        H402   1.112       .  S
C401        C407   1.541       .  S
C401        C406   1.545       .  S
C401        C408   1.539       .  S
C403        C406   1.368       .  D
C403        C512   1.441       .  S
C404        C407   1.368       .  D
C404        C505   1.440       .  S
C405        C408   1.368       .  D
C405        C513   1.441       .  S
C406        C504   1.448       .  S
C407        C501   1.449       .  S
C408        C499   1.447       .  S
C409        H410   1.112       .  S
C409        C415   1.545       .  S
C409        C414   1.539       .  S
C409        C413   1.541       .  S
C411        H412   1.113       .  S
C411        C417   1.529       .  S
C411        C416   1.528       .  S
C411        C418   1.528       .  S
C413        C416   1.368       .  D
C413        C484   1.449       .  S
C414        C417   1.368       .  D
C414        C482   1.447       .  S
C415        C418   1.368       .  D
C415        C486   1.447       .  S
C416        C487   1.440       .  S
C417        C498   1.441       .  S
C418        C491   1.442       .  S
C419        H420   1.112       .  S
C419        C425   1.532       .  S
C419        C423   1.531       .  S
C421        H422   1.112       .  S
C421        C426   1.531       .  S
C421        C428   1.532       .  S
C423        C426   1.368       .  D
C423        C490   1.440       .  S
C424        C427   1.367       .  D
C424        C679   1.441       .  S
C425        C428   1.370       .  D
C425        C678   1.441       .  S
C426        C508   1.440       .  S
C427        C700   1.441       .  S
C428        C693   1.440       .  S
O429        C450   1.270       .  A
O430        C439   1.268       .  A
O430       Ni453   1.912   1_556  S
O431        H454   0.966       .  S
O431       Ni447   1.914       .  S
C432        O449   1.273       .  A
C432        O441   1.274       .  A
C432        C520   1.437       .  S
O433        C439   1.270       .  A
O434        C436   1.266       .  A
O434       Ni452   1.903   1_554  S
Ni435       O438   1.925       .  S
Ni435       O440   1.903       .  S
C436        O630   1.274   1_545  A
C436        C485   1.438       .  S
O437        C443   1.273       .  A
O437       Ni453   1.918       .  S
O438        C627   1.274       .  A
C439        C517   1.439       .  S
O440        C442   1.266   1_554  A
O441       Ni636   1.925       .  S
C442        O448   1.274       .  A
C442        C522   1.438       .  S
C443        O622   1.274   1_545  A
C443        C481   1.437       .  S
H444        O445   0.966       .  S
O445       Ni447   1.912   1_556  S
O445       Ni636   1.914       .  S
O446        C620   1.274       .  A
O446       Ni447   1.937       .  S
Ni447       O451   1.912       .  S
Ni447       O449   1.918   1_554  S
O448       Ni637   1.938   1_556  S
C450        O451   1.268       .  A
C450        C483   1.439       .  S
Ni452       O625   1.925   1_545  S
Ni452       O629   1.914   1_545  S
Ni453       O632   1.938   1_544  S
O455        C476   1.270       .  A
O456        C465   1.268       .  A
O456       Ni479   1.912       .  S
O457        H480   0.966       .  S
O457       Ni645   1.914       .  S
O457       Ni479   1.912       .  S
C458        O475   1.273       .  A
C458        O651   1.274   1_545  A
C458        C500   1.437       .  S
O459        C465   1.270       .  A
O460        C462   1.266       .  A
O460       Ni478   1.903       .  S
Ni461       O648   1.925   1_545  S
Ni461       O466   1.903       .  S
Ni461       O641   1.914   1_545  S
C462        O472   1.273       .  A
C462        C540   1.438       .  S
O463        C469   1.273       .  A
O463       Ni479   1.918       .  S
O464        C469   1.274       .  A
O464       Ni645   1.925       .  S
C465        C502   1.439       .  S
O466        C468   1.266       .  A
O467        C642   1.274       .  A
O467       Ni478   1.925       .  S
C468        O658   1.274   1_545  A
C468        C503   1.438       .  S
C469        C538   1.437       .  S
H470        O471   0.966       .  S
O471       Ni479   1.914       .  S
O472       Ni657   1.937       .  S
Ni473       O656   1.937   1_545  S
Ni473       O477   1.912       .  S
Ni473       O475   1.918       .  S
O474        C652   1.274       .  A
O474       Ni479   1.938       .  S
C476        O477   1.268       .  A
C476        C535   1.439       .  S
C481        C482   1.207       .  T
C483        C484   1.208       .  T
C485        C486   1.208       .  T
C487        C488   1.203       .  T
C488        C489   1.407       .  S
C489        C490   1.203       .  T
C491        C492   1.204       .  T
C492        C493   1.409       .  S
C493        C494   1.204       .  T
C494        C609   1.441       .  S
C495        C608   1.441   1_545  S
C495        C496   1.203       .  T
C496        C497   1.408       .  S
C497        C498   1.203       .  T
C499        C500   1.207       .  T
C501        C502   1.208       .  T
C503        C504   1.208       .  T
C505        C506   1.203       .  T
C506        C507   1.408       .  S
C507        C508   1.203       .  T
C509        C612   1.440       .  S
C509        C510   1.203       .  T
C510        C511   1.409       .  S
C511        C512   1.204       .  T
C513        C514   1.203       .  T
C514        C515   1.408       .  S
C515        C516   1.203       .  T
C516        C611   1.441   1_545  S
C517        C518   1.208       .  T
C519        C520   1.207       .  T
C521        C522   1.208       .  T
C523        C524   1.203       .  T
C524        C525   1.408       .  S
C525        C526   1.203       .  T
C527        C528   1.203       .  T
C528        C529   1.409       .  S
C529        C530   1.204       .  T
C531        C532   1.203       .  T
C532        C533   1.408       .  S
C533        C534   1.203       .  T
C535        C536   1.208       .  T
C537        C538   1.207       .  T
C539        C540   1.208       .  T
C541        C542   1.203       .  T
C542        C543   1.407       .  S
C543        C544   1.203       .  T
C545        C546   1.203       .  T
C546        C547   1.408       .  S
C547        C548   1.203       .  T
C549        C550   1.204       .  T
C550        C551   1.409       .  S
C551        C552   1.204       .  T
C553        H554   1.112       .  S
C553        C559   1.545       .  S
C553        C558   1.539       .  S
C553        C557   1.541       .  S
C555        H556   1.113       .  S
C555        C561   1.529       .  S
C555        C560   1.528       .  S
C555        C562   1.528       .  S
C557        C560   1.368       .  D
C557        C720   1.449       .  S
C558        C561   1.368       .  D
C558        C721   1.447       .  S
C559        C562   1.368       .  D
C559        C723   1.447       .  S
C560        C725   1.440       .  S
C561        C732   1.441       .  S
C562        C736   1.442       .  S
C563        H564   1.113       .  S
C563        C569   1.529       .  S
C563        C568   1.528       .  S
C563        C567   1.528       .  S
C565        H566   1.112       .  S
C565        C571   1.541       .  S
C565        C570   1.545       .  S
C565        C572   1.539       .  S
C567        C570   1.368       .  D
C567        C714   1.441       .  S
C568        C571   1.368       .  D
C568        C715   1.440       .  S
C569        C572   1.368       .  D
C569        C710   1.441       .  S
C570        C705   1.448       .  S
C571        C702   1.449       .  S
C572        C703   1.447       .  S
C573        H574   1.112       .  S
C573        C579   1.532       .  S
C575        H576   1.112       .  S
C575        C582   1.532       .  S
C577        C580   1.368       .  D
C577        C728   1.440       .  S
C578        C581   1.367       .  D
C578        C729   1.440       .  S
C579        C582   1.370       .  D
C579        C733   1.441       .  S
C580        C718   1.440       .  S
C581        C707   1.441       .  S
C582        C711   1.440       .  S
C583        H584   1.113       .  S
C583        C589   1.529       .  S
C583        C588   1.528       .  S
C583        C587   1.528       .  S
C585        H586   1.112       .  S
C585        C591   1.541       .  S
C585        C590   1.545       .  S
C585        C592   1.539       .  S
C587        C590   1.368       .  D
C587        C696   1.441       .  S
C588        C591   1.368       .  D
C588        C689   1.440       .  S
C589        C592   1.368       .  D
C589        C697   1.441       .  S
C590        C688   1.448       .  S
C591        C685   1.449       .  S
C592        C683   1.447       .  S
C593        H594   1.112       .  S
C593        C599   1.545       .  S
C593        C598   1.539       .  S
C593        C597   1.541       .  S
C595        H596   1.113       .  S
C595        C601   1.529       .  S
C595        C600   1.528       .  S
C595        C602   1.528       .  S
C597        C600   1.368       .  D
C597        C668   1.449       .  S
C598        C601   1.368       .  D
C598        C666   1.447       .  S
C599        C602   1.368       .  D
C599        C670   1.447       .  S
C600        C671   1.440       .  S
C601        C682   1.441       .  S
C602        C675   1.442       .  S
C603        H604   1.112       .  S
C603        C609   1.532   1_565  S
C603        C607   1.531       .  S
C605        H606   1.112       .  S
C605        C610   1.531       .  S
C605        C612   1.532   1_565  S
C607        C610   1.368       .  D
C607        C674   1.440       .  S
C608        C611   1.367       .  D
C609        C612   1.370       .  D
C610        C692   1.440       .  S
O613        C634   1.270       .  A
O614        C623   1.268       .  A
O614       Ni637   1.912   1_556  S
O615        H638   0.966       .  S
O615       Ni631   1.914       .  S
C616        O633   1.273       .  A
C616        O625   1.274       .  A
C616        C704   1.437       .  S
O617        C623   1.270       .  A
O618        C620   1.266       .  A
O618       Ni636   1.903   1_554  S
Ni619       O622   1.925       .  S
Ni619       O624   1.903       .  S
C620        C669   1.438       .  S
O621        C627   1.273       .  A
O621       Ni637   1.918       .  S
C623        C701   1.439       .  S
O624        C626   1.266   1_554  A
C626        O632   1.274       .  A
C626        C706   1.438       .  S
C627        C665   1.437       .  S
H628        O629   0.966       .  S
O629       Ni631   1.912   1_556  S
O630       Ni631   1.937       .  S
Ni631       O635   1.912       .  S
Ni631       O633   1.918   1_554  S
C634        O635   1.268       .  A
C634        C667   1.439       .  S
O639        C660   1.270       .  A
O640        C649   1.268       .  A
O640       Ni663   1.912       .  S
O641        H664   0.966       .  S
O641       Ni663   1.912       .  S
C642        O659   1.273       .  A
C642        C684   1.437       .  S
O643        C649   1.270       .  A
O644        C646   1.266       .  A
O644       Ni662   1.903       .  S
Ni645       O650   1.903       .  S
C646        O656   1.273       .  A
C646        C724   1.438       .  S
O647        C653   1.273       .  A
O647       Ni663   1.918       .  S
O648        C653   1.274       .  A
C649        C686   1.439       .  S
O650        C652   1.266       .  A
O651       Ni662   1.925       .  S
C652        C687   1.438       .  S
C653        C722   1.437       .  S
H654        O655   0.966       .  S
O655       Ni663   1.914       .  S
Ni657       O661   1.912       .  S
Ni657       O659   1.918       .  S
O658       Ni663   1.938       .  S
C660        O661   1.268       .  A
C660        C719   1.439       .  S
C665        C666   1.207       .  T
C667        C668   1.208       .  T
C669        C670   1.208       .  T
C671        C672   1.203       .  T
C672        C673   1.407       .  S
C673        C674   1.203       .  T
C675        C676   1.204       .  T
C676        C677   1.409       .  S
C677        C678   1.204       .  T
C679        C680   1.203       .  T
C680        C681   1.408       .  S
C681        C682   1.203       .  T
C683        C684   1.207       .  T
C685        C686   1.208       .  T
C687        C688   1.208       .  T
C689        C690   1.203       .  T
C690        C691   1.408       .  S
C691        C692   1.203       .  T
C693        C694   1.203       .  T
C694        C695   1.409       .  S
C695        C696   1.204       .  T
C697        C698   1.203       .  T
C698        C699   1.408       .  S
C699        C700   1.203       .  T
C701        C702   1.208       .  T
C703        C704   1.207       .  T
C705        C706   1.208       .  T
C707        C708   1.203       .  T
C708        C709   1.408       .  S
C709        C710   1.203       .  T
C711        C712   1.203       .  T
C712        C713   1.409       .  S
C713        C714   1.204       .  T
C715        C716   1.203       .  T
C716        C717   1.408       .  S
C717        C718   1.203       .  T
C719        C720   1.208       .  T
C721        C722   1.207       .  T
C723        C724   1.208       .  T
C725        C726   1.203       .  T
C726        C727   1.407       .  S
C727        C728   1.203       .  T
C729        C730   1.203       .  T
C730        C731   1.408       .  S
C731        C732   1.203       .  T
C733        C734   1.204       .  T
C734        C735   1.409       .  S
C735        C736   1.204       .  T
