geometry optimzed in LAMMPS
_audit_creation_date              2020-12-01 
_audit_creation_method            'lammps2cif' 
_symmetry_space_group_name_H-M    'P1' 
_symmetry_Int_Tables_number       1 
_symmetry_cell_setting            triclinic 
loop_ 
_symmetry_equiv_pos_as_xyz 
  x,y,z 
_cell_length_a                    30.32286214 
_cell_length_b                    32.51766100970666 
_cell_length_c                    29.760642753862975 
_cell_angle_alpha                 99.85235649565386 
_cell_angle_beta                  85.22377275739419 
_cell_angle_gamma                 89.18537880525594 
loop_ 
_atom_site_label 
_atom_site_type_symbol 
_atom_site_fract_x 
_atom_site_fract_y 
_atom_site_fract_z 
_atom_site_charge 
C1          C  0.33062063  0.08678084  0.35990116     0.79600
N2          N  0.33343136  0.11520218  0.39941234    -0.78700
C3          C  0.36813617  0.14147482  0.40396029     0.82100
N4          N  0.39941197  0.13961964  0.36866015    -0.78600
C5          C  0.39731775  0.11309684  0.32870832     0.82200
N6          N  0.36274784  0.08608823  0.32403871    -0.80300
C7          C  0.40867401  0.39207511  0.15595413     0.79600
N8          N  0.40511903  0.36000668  0.12061354    -0.78700
C9          C  0.37251007  0.36004563  0.09204397     0.82100
N10         N  0.34262064  0.39260499  0.09934406    -0.78600
C11         C  0.34647521  0.42591067  0.13361935     0.82200
N12         N  0.37978033  0.42558575  0.16184490    -0.80300
C13         C  0.15449380  0.38693453  0.38009469     0.79600
N14         N  0.14674648  0.35925875  0.40938990    -0.78700
C15         C  0.11402648  0.33053756  0.40305344     0.82100
N16         N  0.08845785  0.33056668  0.36702960    -0.78600
C17         C  0.09480758  0.35963373  0.33873773     0.82200
N18         N  0.12796121  0.38706483  0.34552729    -0.80300
C19         C  0.14244085  0.15141920  0.06681377     0.79600
N20         N  0.17425123  0.12193546  0.07000549    -0.78700
C21         C  0.17265668  0.10180608  0.10701651     0.82100
N22         N  0.13847750  0.11204831  0.14090505    -0.78600
C23         C  0.10570369  0.14092173  0.13758672     0.82200
N24         N  0.10831482  0.16011288  0.10034217    -0.80300
O25         O  0.02601853  0.14602020  0.16023617    -0.73500
O26         O  0.42488099  0.11438523  0.24975010    -0.74500
O27         O  0.44980545  0.19122915  0.22555260    -0.63100
O28         O  0.49572151  0.07368811  0.18956016    -0.71600
O29         O  0.03915345  0.08851538  0.24625972    -0.71100
O30         O  0.99930302  0.20294667  0.27649464    -0.62400
O31         O  0.47024887  0.13043845  0.30434050    -0.74900
O32         O  0.07142822  0.15529020  0.21537729    -0.73600
Cu33       Cu  0.47268807  0.13166305  0.20363776     1.04600
Cu34       Cu  0.02151009  0.14515991  0.26207669     1.04300
C35         C  0.06581391  0.14894394  0.17263421     0.92700
C36         C  0.43248302  0.11792143  0.29190519     0.91800
C37         C  0.46318579  0.21300114  0.26165995     0.83900
C38         C  0.52407268  0.06277227  0.21472524     0.90200
O39         O  0.19634053  0.25792945  0.97254058    -0.73500
O40         O  0.07995801  0.26216713  0.04503249    -0.74500
O41         O  0.15634122  0.21659384  0.04400486    -0.63100
O42         O  0.12220489  0.30686021  0.47415758    -0.71600
O43         O  0.09989592  0.25990677  0.41828071    -0.71100
O44         O  0.13253071  0.16720287  0.99133509    -0.62400
O45         O  0.05752245  0.21495873  0.48936109    -0.74900
O46         O  0.17419822  0.20870279  0.41822816    -0.73600
Cu47       Cu  0.13946258  0.26252343  0.01060266     1.04600
Cu48       Cu  0.11508364  0.21105675  0.45236776     1.04300
C49         C  0.20172049  0.23598272  0.43243703     0.92700
C50         C  0.05281742  0.23425954  0.53062955     0.91800
C51         C  0.14615876  0.17869179  0.03123441     0.83900
C52         C  0.11019904  0.29774445  0.43349226     0.90200
O53         O  0.27983943  0.45883641  0.11902383    -0.73500
O54         O  0.21827667  0.03902404  0.07560634    -0.74500
O55         O  0.28054946  0.50253823  0.04779678    -0.63100
O56         O  0.21018053  0.51527002  0.16776355    -0.71600
O57         O  0.22445887  0.98946142  0.17504940    -0.71100
O58         O  0.32011283  0.05404635  0.12623769    -0.62400
O59         O  0.22572510  0.06791356  0.14727808    -0.74900
O60         O  0.33026510  0.50019193  0.15106312    -0.73600
Cu61       Cu  0.24356140  0.50733476  0.10656063     1.04600
Cu62       Cu  0.27229857  0.02241347  0.15444626     1.04300
C63         C  0.31710642  0.46342365  0.13609032     0.92700
C64         C  0.20735712  0.06821974  0.10996769     0.91800
C65         C  0.31952669  0.51678385  0.04502926     0.83900
C66         C  0.22218661  0.54132402  0.20129583     0.90200
O67         O  0.04424663  0.40064433  0.30584281    -0.73500
O68         O  0.44934819  0.41833584  0.22082594    -0.74500
O69         O  0.45075726  0.39034957  0.30673668    -0.63100
O70         O  0.54219364  0.42757423  0.21748472    -0.71600
O71         O  0.05809417  0.36259658  0.18179787    -0.71100
O72         O  0.96631090  0.32742290  0.26567208    -0.62400
O73         O  0.46624254  0.35484898  0.18256472    -0.74900
O74         O  0.05730580  0.33532119  0.27070356    -0.73600
Cu75       Cu  0.49676621  0.41174142  0.26421570     1.04600
Cu76       Cu  0.01270367  0.34304326  0.22431390     1.04300
C77         C  0.06389147  0.36506501  0.30347186     0.92700
C78         C  0.44304404  0.38869051  0.18796795     0.91800
C79         C  0.44390616  0.35132387  0.29817854     0.83900
C80         C  0.56014288  0.40170397  0.18315509     0.90200
O81         O  0.31386108  0.43534426  0.36146744    -0.73500
O82         O  0.20994394  0.49184310  0.32047903    -0.74500
O83         O  0.30024076  0.01719519  0.34571517    -0.63100
O84         O  0.21954751  0.41460131  0.34741791    -0.71600
O85         O  0.19479573  0.44518633  0.41749783    -0.71100
O86         O  0.25419939  0.06999408  0.37599247    -0.62400
O87         O  0.18120328  0.02296492  0.33576612    -0.74900
O88         O  0.23537484  0.03780699  0.45345987    -0.73600
Cu89       Cu  0.26134028  0.46100802  0.33743901     1.04600
Cu90       Cu  0.20597199  0.03124217  0.39588421     1.04900
C91         C  0.27359906  0.02055031  0.45272578     0.92700
C92         C  0.19419738  0.99213789  0.30486346     0.91800
C93         C  0.29300000  0.05665898  0.35844908     0.83900
C94         C  0.19219612  0.41609802  0.38285510     0.90200
O95         O  0.33553575  0.30067954  0.05537493    -0.73500
O96         O  0.33767094  0.18651352  0.47317367    -0.74500
O97         O  0.36488591  0.21927148  0.06442431    -0.63100
O98         O  0.31255814  0.26733591  0.96332087    -0.71600
O99         O  0.37904408  0.28054336  0.43272152    -0.71100
O100        O  0.42925799  0.23304939  0.52989496    -0.62400
O101        O  0.40335715  0.20078352  0.44182256    -0.74900
O102        O  0.40233298  0.31317575  0.02516188    -0.73600
Cu103      Cu  0.33507604  0.24332578  0.01536873     1.04600
Cu104      Cu  0.40563869  0.25749799  0.48171407     1.04300
C105        C  0.36939037  0.32364371  0.05500556     0.92700
C106        C  0.36997369  0.17704312  0.44247315     0.91800
C107        C  0.40713094  0.21935209  0.56217719     0.83900
C108        C  0.33776818  0.27710229  0.43006505     0.90200
C109        C  0.35475604  0.45200719  0.00411677    -0.20900
C110        C  0.35041065  0.49545159  0.00744650    -0.07500
C111        C  0.32150267  0.09685133  0.04426342     0.13400
C112        C  0.29526315  0.08151118  0.50866079    -0.21000
C113        C  0.30725748  0.04281615  0.48032907    -0.07500
C114        C  0.36368202  0.42682136  0.46129051     0.13400
C115        C  0.36701066  0.38054898  0.45799808    -0.24300
H116        H  0.34662599  0.43761228  0.03379928     0.14700
H117        H  0.26447137  0.09778900  0.50576412     0.14700
C118        C  0.30657955  0.13548947  0.07755856    -0.24300
H119        H  0.33595103  0.36890563  0.47319147     0.04900
H120        H  0.39510080  0.37265192  0.47684788     0.08100
H121        H  0.37354766  0.36492251  0.42202089     0.08100
H122        H  0.32956905  0.14243984  0.10486937     0.08100
H123        H  0.27297929  0.13133349  0.09368901     0.08100
H124        H  0.30532489  0.16232668  0.05916411     0.04900
C125        C  0.17715278  0.58224372  0.32378395    -0.20900
C126        C  0.17136521  0.98240266  0.26332291    -0.07500
C127        C  0.15211846  0.01351054  0.24236798     0.13400
C128        C  0.13876501  0.00127152  0.19805107    -0.21000
C129        C  0.19235141  0.55097813  0.24389123    -0.07500
C130        C  0.19958906  0.58353200  0.28077349     0.13400
C131        C  0.23168154  0.61785391  0.27629025    -0.24300
H132        H  0.18657707  0.60327037  0.35357507     0.14700
H133        H  0.12868596  0.02512594  0.17926819     0.14700
C134        C  0.14890871  0.05902655  0.26389050    -0.24300
H135        H  0.22962209  0.64192996  0.30780848     0.04900
H136        H  0.22395501  0.63347362  0.24737431     0.08100
H137        H  0.26617660  0.60503290  0.27074772     0.08100
H138        H  0.18241449  0.07063920  0.27051511     0.08100
H139        H  0.12742340  0.06326603  0.29648544     0.08100
H140        H  0.13436688  0.07841694  0.24122685     0.04900
C141        C  0.00166732  0.17994747  0.55079733    -0.20900
C142        C  0.01747995  0.22072268  0.56173586    -0.07500
C143        C  0.99874707  0.24573028  0.10253026     0.13400
C144        C  0.45622938  0.23598636  0.12017898    -0.21000
C145        C  0.43357725  0.20350324  0.59512718    -0.07500
C146        C  0.46109940  0.17007147  0.57203127     0.13400
C147        C  0.44344577  0.12728975  0.56043179    -0.24300
H148        H  0.01938597  0.15683730  0.52472922     0.14700
H149        H  0.43808913  0.25851153  0.14644540     0.14700
C150        C  0.02301735  0.28110200  0.12731120    -0.24300
H151        H  0.46642176  0.10412114  0.57024357     0.04900
H152        H  0.43974667  0.11958800  0.52313889     0.08100
H153        H  0.41088892  0.12574795  0.57977547     0.08100
H154        H  0.02372041  0.30783573  0.10854709     0.08100
H155        H  0.05725971  0.27062778  0.13132779     0.08100
H156        H  0.00710193  0.29053102  0.16233172     0.04900
C157        C  0.24188455  0.29022229  0.90137588    -0.20900
C158        C  0.23712510  0.24742249  0.40136180    -0.07500
C159        C  0.26988950  0.21923337  0.37691426     0.13400
C160        C  0.31157413  0.23547822  0.36604737    -0.21000
C161        C  0.31941234  0.27698104  0.38582965    -0.07500
C162        C  0.28323196  0.30455296  0.88883977     0.13400
C163        C  0.28853313  0.34867274  0.88280633    -0.24300
H164        H  0.21481195  0.31226042  0.91393477     0.14700
H165        H  0.33944517  0.21419633  0.35352028     0.14700
C166        C  0.26180806  0.17347259  0.36523026    -0.24300
H167        H  0.26848627  0.35452077  0.85501171     0.04900
H168        H  0.32333006  0.35456508  0.87210886     0.08100
H169        H  0.27713323  0.36993356  0.91509597     0.08100
H170        H  0.23251397  0.16859474  0.34513013     0.08100
H171        H  0.25570371  0.16015705  0.39705079     0.08100
H172        H  0.29047509  0.15692136  0.34385614     0.04900
C173        C  0.05107297  0.01004466  0.25312055    -0.20900
C174        C  0.53748375  0.01991233  0.21220648    -0.07500
C175        C  0.53642574  0.98884759  0.17289222     0.13400
C176        C  0.53513236  0.42864278  0.12151536    -0.21000
C177        C  0.57327830  0.41782317  0.14110375    -0.07500
C178        C  0.10655488  0.44708210  0.14467832     0.13400
C179        C  0.15391525  0.43291705  0.14452958    -0.24300
H180        H  0.05216367  0.03341361  0.28371794     0.14700
H181        H  0.51173987  0.40456738  0.11149297     0.14700
C182        C  0.52539316  0.99853185  0.12734372    -0.24300
H183        H  0.17457089  0.44570823  0.11787377     0.04900
H184        H  0.15720412  0.39829787  0.13657862     0.08100
H185        H  0.16657936  0.44302399  0.17832784     0.08100
H186        H  0.54837531  0.02205188  0.11665609     0.08100
H187        H  0.49072555  0.01060483  0.12968742     0.08100
H188        H  0.52866849  0.97022379  0.10033814     0.04900
C189        C  0.95153247  0.26690266  0.33198931    -0.20900
C190        C  0.43662807  0.24870050  0.28941619    -0.07500
C191        C  0.39743644  0.26619226  0.27634470     0.13400
C192        C  0.38352800  0.30671592  0.29882683    -0.21000
C193        C  0.41295502  0.33027402  0.32635170    -0.07500
C194        C  0.93771383  0.30768985  0.35219236     0.13400
C195        C  0.96153781  0.32986144  0.39127048    -0.24300
H196        H  0.97725924  0.25166326  0.34694108     0.14700
H197        H  0.35700123  0.32287495  0.28608595     0.14700
C198        C  0.37163768  0.24400970  0.23886914    -0.24300
H199        H  0.95441842  0.31526656  0.42204205     0.04900
H200        H  0.95145119  0.36343621  0.39975715     0.08100
H201        H  0.99775570  0.32774243  0.38175168     0.08100
H202        H  0.36118804  0.21338271  0.24714157     0.08100
H203        H  0.39205760  0.23918340  0.20571418     0.08100
H204        H  0.34141141  0.26231318  0.23496039     0.04900
C205        C  0.33063134  0.08678613  0.85991002     0.79600
N206        N  0.33344152  0.11520551  0.89942278    -0.78700
C207        C  0.36814617  0.14147819  0.90397265     0.82100
N208        N  0.39942249  0.13962477  0.86867336    -0.78600
C209        C  0.39732853  0.11310388  0.82872033     0.82200
N210        N  0.36275870  0.08609564  0.82404843    -0.80300
C211        C  0.40867393  0.39207273  0.65595147     0.79600
N212        N  0.40512083  0.36000426  0.62060996    -0.78700
C213        C  0.37251233  0.36004229  0.59203926     0.82100
N214        N  0.34262185  0.39260131  0.59933946    -0.78600
C215        C  0.34647505  0.42590696  0.63361565     0.82200
N216        N  0.37977932  0.42558229  0.66184190    -0.80300
C217        C  0.15449861  0.38693265  0.88009441     0.79600
N218        N  0.14675350  0.35925526  0.90938813    -0.78700
C219        C  0.11403331  0.33053429  0.90305190     0.82100
N220        N  0.08846262  0.33056528  0.86703034    -0.78600
C221        C  0.09481016  0.35963419  0.83874075     0.82200
N222        N  0.12796372  0.38706511  0.84552955    -0.80300
C223        C  0.14244277  0.15142186  0.56681325     0.79600
N224        N  0.17425195  0.12193652  0.57000357    -0.78700
C225        C  0.17265633  0.10180549  0.60701338     0.82100
N226        N  0.13847761  0.11204771  0.64090216    -0.78600
C227        C  0.10570488  0.14092240  0.63758519     0.82200
N228        N  0.10831669  0.16011523  0.60034178    -0.80300
O229        O  0.02602028  0.14602072  0.66023686    -0.73500
O230        O  0.42489035  0.11439200  0.74976270    -0.74500
O231        O  0.44981329  0.19123405  0.72556090    -0.63100
O232        O  0.49572801  0.07369376  0.68957214    -0.71600
O233        O  0.03915870  0.08851175  0.74625503    -0.71100
O234        O  0.99930959  0.20294301  0.77649991    -0.62400
O235        O  0.47025837  0.13044858  0.80435252    -0.74900
O236        O  0.07143185  0.15528940  0.71537631    -0.73600
Cu237      Cu  0.47269512  0.13166813  0.70364826     1.04600
Cu238      Cu  0.02151615  0.14515647  0.76207673     1.04300
C239        C  0.06581605  0.14894437  0.67263360     0.92700
C240        C  0.43249287  0.11793016  0.79191772     0.91800
C241        C  0.46319532  0.21300726  0.76166648     0.83900
C242        C  0.52407791  0.06277538  0.71473701     0.90200
O243        O  0.19633732  0.25793519  0.47253580    -0.73500
O244        O  0.07996041  0.26216881  0.54503935    -0.74500
O245        O  0.15634581  0.21659625  0.54400309    -0.63100
O246        O  0.12221094  0.30685625  0.97415494    -0.71600
O247        O  0.09990242  0.25990310  0.91827741    -0.71100
O248        O  0.13252968  0.16720654  0.49133579    -0.62400
O249        O  0.05752397  0.21495452  0.98935437    -0.74900
O250        O  0.17420341  0.20869858  0.91822992    -0.73600
Cu251      Cu  0.13946213  0.26252689  0.51060334     1.04600
Cu252      Cu  0.11508725  0.21105265  0.95236530     1.04300
C253        C  0.20172541  0.23597764  0.93244160     0.92700
C254        C  0.05281600  0.23425717  0.03062192     0.91800
C255        C  0.14616083  0.17869464  0.53123377     0.83900
C256        C  0.11020593  0.29774063  0.93348947     0.90200
O257        O  0.27984089  0.45883711  0.61901965    -0.73500
O258        O  0.21827462  0.03902215  0.57560409    -0.74500
O259        O  0.28055461  0.50254733  0.54779905    -0.63100
O260        O  0.21018465  0.51527245  0.66776431    -0.71600
O261        O  0.22446283  0.98946372  0.67504983    -0.71100
O262        O  0.32011291  0.05405112  0.62623106    -0.62400
O263        O  0.22572579  0.06791472  0.64727437    -0.74900
O264        O  0.33026718  0.50018801  0.65106474    -0.73600
Cu265      Cu  0.24356641  0.50734067  0.60656199     1.04600
Cu266      Cu  0.27230103  0.02241714  0.65444339     1.04300
C267        C  0.31710738  0.46342107  0.63608766     0.92700
C268        C  0.20735633  0.06821907  0.60996457     0.91800
C269        C  0.31953337  0.51678956  0.54503369     0.83900
C270        C  0.22219113  0.54132422  0.70129837     0.90200
O271        O  0.04424665  0.40064515  0.80585030    -0.73500
O272        O  0.44934521  0.41833557  0.72082558    -0.74500
O273        O  0.45075410  0.39035345  0.80674000    -0.63100
O274        O  0.54219132  0.42757405  0.71748582    -0.71600
O275        O  0.05809036  0.36259830  0.68180638    -0.71100
O276        O  0.96631326  0.32742126  0.76568468    -0.62400
O277        O  0.46624153  0.35484889  0.68256544    -0.74900
O278        O  0.05730658  0.33532241  0.77070957    -0.73600
Cu279      Cu  0.49676310  0.41174306  0.76421727     1.04600
Cu280      Cu  0.01270226  0.34304334  0.72432362     1.04300
C281        C  0.06389263  0.36506612  0.80347748     0.92700
C282        C  0.44304260  0.38868974  0.68796729     0.91800
C283        C  0.44390251  0.35132787  0.79818248     0.83900
C284        C  0.56014117  0.40170287  0.68315727     0.90200
O285        O  0.31386285  0.43534410  0.86146097    -0.73500
O286        O  0.20994159  0.49184008  0.82047445    -0.74500
O287        O  0.30025099  0.01720139  0.84571883    -0.63100
O288        O  0.21954980  0.41459969  0.84741478    -0.71600
O289        O  0.19480045  0.44518415  0.91749582    -0.71100
O290        O  0.25420883  0.07000002  0.87599482    -0.62400
O291        O  0.18121174  0.02297152  0.83576512    -0.74900
O292        O  0.23538497  0.03781011  0.95345993    -0.73600
Cu293      Cu  0.26134030  0.46100659  0.83743356     1.04600
Cu294      Cu  0.20598120  0.03124728  0.89588397     1.04900
C295        C  0.27360720  0.02054960  0.95272703     0.92700
C296        C  0.19420644  0.99214462  0.80486236     0.91800
C297        C  0.29301021  0.05666499  0.85845399     0.83900
C298        C  0.19220041  0.41609585  0.88285338     0.90200
O299        O  0.33553664  0.30067634  0.55536847    -0.73500
O300        O  0.33767666  0.18651689  0.97318325    -0.74500
O301        O  0.36488146  0.21926581  0.56441644    -0.63100
O302        O  0.31255673  0.26733381  0.46331444    -0.71600
O303        O  0.37904509  0.28054667  0.93272782    -0.71100
O304        O  0.42926105  0.23306178  0.02990473    -0.62400
O305        O  0.40336298  0.20078919  0.94183405    -0.74900
O306        O  0.40233564  0.31316863  0.52515747    -0.73600
Cu307      Cu  0.33507368  0.24332221  0.51536102     1.04600
Cu308      Cu  0.40564030  0.25750523  0.98172204     1.04300
C309        C  0.36939275  0.32363889  0.55500059     0.92700
C310        C  0.36998094  0.17704710  0.94248461     0.91800
C311        C  0.40713534  0.21936121  0.06218537     0.83900
C312        C  0.33776930  0.27710508  0.93007147     0.90200
C313        C  0.35476065  0.45201144  0.50412353    -0.20900
C314        C  0.35041629  0.49545567  0.50745115    -0.07500
C315        C  0.32149073  0.09685858  0.54425848     0.13400
C316        C  0.29527651  0.08150702  0.00866342    -0.21000
C317        C  0.30726647  0.04280982  0.98033399    -0.07500
C318        C  0.36368149  0.42681911  0.96128312     0.13400
C319        C  0.36700608  0.38054643  0.95798823    -0.24300
H320        H  0.34663332  0.43761830  0.53380775     0.14700
H321        H  0.26448828  0.09778907  0.00576342     0.14700
C322        C  0.30656572  0.13549539  0.57755474    -0.24300
H323        H  0.33594405  0.36890458  0.97317828     0.04900
H324        H  0.39509339  0.37264622  0.97683998     0.08100
H325        H  0.37354485  0.36492141  0.92201073     0.08100
H326        H  0.32955884  0.14244947  0.60486160     0.08100
H327        H  0.27296856  0.13133510  0.59369001     0.08100
H328        H  0.30530301  0.16233216  0.55916037     0.04900
C329        C  0.17715196  0.58224074  0.82378624    -0.20900
C330        C  0.17137167  0.98240467  0.76332391    -0.07500
C331        C  0.15211986  0.01350823  0.74236687     0.13400
C332        C  0.13876656  0.00126431  0.69805047    -0.21000
C333        C  0.19235472  0.55097824  0.74389288    -0.07500
C334        C  0.19959492  0.58352799  0.78077877     0.13400
C335        C  0.23169897  0.61784232  0.77630379    -0.24300
H336        H  0.18657548  0.60326485  0.85357955     0.14700
H337        H  0.12868375  0.02511589  0.67926565     0.14700
C338        C  0.14890497  0.05902478  0.76388641    -0.24300
H339        H  0.22964230  0.64191555  0.80782440     0.04900
H340        H  0.22398264  0.63346782  0.74738899     0.08100
H341        H  0.26619051  0.60501210  0.77076437     0.08100
H342        H  0.18240956  0.07064186  0.77050870     0.08100
H343        H  0.12742128  0.06326369  0.79648241     0.08100
H344        H  0.13435888  0.07841157  0.74122185     0.04900
C345        C  0.00166154  0.17994741  0.05078783    -0.20900
C346        C  0.01747655  0.22072173  0.06172712    -0.07500
C347        C  0.99874868  0.24573108  0.60253824     0.13400
C348        C  0.45622039  0.23598645  0.62017225    -0.21000
C349        C  0.43358412  0.20350732  0.09512963    -0.07500
C350        C  0.46110287  0.17007617  0.07202552     0.13400
C351        C  0.44343917  0.12730118  0.06040008    -0.24300
H352        H  0.01937816  0.15683730  0.02471825     0.14700
H353        H  0.43807898  0.25851271  0.64643671     0.14700
C354        C  0.02301855  0.28110203  0.62732098    -0.24300
H355        H  0.46640726  0.10411912  0.07019942     0.04900
H356        H  0.43974156  0.11961855  0.02310561     0.08100
H357        H  0.41087983  0.12575918  0.07973820     0.08100
H358        H  0.02372319  0.30783605  0.60855735     0.08100
H359        H  0.05726039  0.27062702  0.63133864     0.08100
H360        H  0.00710174  0.29053085  0.66234100     0.04900
C361        C  0.24188336  0.29022545  0.40137016    -0.20900
C362        C  0.23713027  0.24741912  0.90136843    -0.07500
C363        C  0.26989679  0.21923201  0.87692173     0.13400
C364        C  0.31157947  0.23547994  0.86605346    -0.21000
C365        C  0.31941421  0.27698355  0.88583556    -0.07500
C366        C  0.28323253  0.30455331  0.38883495     0.13400
C367        C  0.28853933  0.34867456  0.38281011    -0.24300
H368        H  0.21481281  0.31226570  0.41393063     0.14700
H369        H  0.33945221  0.21420004  0.85352691     0.14700
C370        C  0.26181984  0.17347037  0.86524064    -0.24300
H371        H  0.26849351  0.35453007  0.35501767     0.04900
H372        H  0.32333734  0.35456432  0.37211390     0.08100
H373        H  0.27714173  0.36993171  0.41510310     0.08100
H374        H  0.23252503  0.16858855  0.84514207     0.08100
H375        H  0.25571887  0.16015625  0.89706247     0.08100
H376        H  0.29048753  0.15692137  0.84386569     0.04900
C377        C  0.05107335  0.01004056  0.75311601    -0.20900
C378        C  0.53748815  0.01991402  0.71221274    -0.07500
C379        C  0.53641962  0.98885150  0.67289770     0.13400
C380        C  0.53512533  0.42863869  0.62151892    -0.21000
C381        C  0.57327373  0.41782020  0.64110398    -0.07500
C382        C  0.10654637  0.44708239  0.64467767     0.13400
C383        C  0.15390722  0.43291709  0.64452396    -0.24300
H384        H  0.05216709  0.03340960  0.78371288     0.14700
H385        H  0.51173227  0.40456281  0.61150028     0.14700
C386        C  0.52537785  0.99853962  0.62735354    -0.24300
H387        H  0.17455918  0.44570353  0.61786182     0.04900
H388        H  0.15719490  0.39829770  0.63657957     0.08100
H389        H  0.16657642  0.44303012  0.67831869     0.08100
H390        H  0.54835900  0.02205887  0.61666244     0.08100
H391        H  0.49071032  0.01061466  0.62970551     0.08100
H392        H  0.52864667  0.97023279  0.60034609     0.04900
C393        C  0.95154224  0.26689722  0.83199981    -0.20900
C394        C  0.43663658  0.24870606  0.78942310    -0.07500
C395        C  0.39744134  0.26619377  0.77635386     0.13400
C396        C  0.38352855  0.30671595  0.79883708    -0.21000
C397        C  0.41295493  0.33027777  0.82635912    -0.07500
C398        C  0.93772555  0.30768419  0.85220524     0.13400
C399        C  0.96155260  0.32985328  0.89128233    -0.24300
H400        H  0.97727022  0.25165653  0.84694875     0.14700
H401        H  0.35699832  0.32287190  0.78609809     0.14700
C402        C  0.37164382  0.24400955  0.73887824    -0.24300
H403        H  0.95443083  0.31525940  0.92205437     0.04900
H404        H  0.95147084  0.36342914  0.89976847     0.08100
H405        H  0.99777033  0.32772984  0.88176290     0.08100
H406        H  0.36119869  0.21338081  0.74714909     0.08100
H407        H  0.39206321  0.23918704  0.70572289     0.08100
H408        H  0.34141490  0.26231000  0.73497119     0.04900
C409        C  0.33907272  0.57033396  0.35827490     0.79600
N410        N  0.34054559  0.60425990  0.39192946    -0.78700
C411        C  0.37373981  0.63187650  0.39084992     0.82100
N412        N  0.40596996  0.62506204  0.35552501    -0.78600
C413        C  0.40487216  0.59174360  0.32078797     0.82200
N414        N  0.37117637  0.56435295  0.32219789    -0.80300
C415        C  0.39025860  0.86632470  0.17880068     0.79600
N416        N  0.39380574  0.83329789  0.14342848    -0.78700
C417        C  0.37211754  0.83377533  0.10527768     0.82100
N418        N  0.34681386  0.86800843  0.10228927    -0.78600
C419        C  0.34359053  0.90214059  0.13632783     0.82200
N420        N  0.36533933  0.90102169  0.17485599    -0.80300
C421        C  0.13184983  0.91770104  0.41057205     0.79600
N422        N  0.12995741  0.89240969  0.44325609    -0.78700
C423        C  0.09754416  0.86318761  0.44451056     0.82100
N424        N  0.06854915  0.85818783  0.41182204    -0.78600
C425        C  0.06924478  0.88280053  0.37939760     0.82200
N426        N  0.10079212  0.91270504  0.37909296    -0.80300
C427        C  0.15344209  0.68903733  0.10224137     0.79600
N428        N  0.18798584  0.66062809  0.09556518    -0.78700
C429        C  0.18682541  0.62809143  0.11892453     0.82100
N430        N  0.15067109  0.62370804  0.14795286    -0.78600
C431        C  0.11559842  0.65119245  0.15430768     0.82200
N432        N  0.11698510  0.68370591  0.13089671    -0.80300
O433        O  0.03678787  0.64236189  0.16940363    -0.73500
O434        O  0.43415314  0.59493171  0.24327288    -0.74500
O435        O  0.46754160  0.67259731  0.24204950    -0.63100
O436        O  0.50181175  0.56201776  0.16767145    -0.71600
O437        O  0.04834332  0.55196863  0.21873829    -0.71100
O438        O  0.01107842  0.66229900  0.29554875    -0.62400
O439        O  0.48096866  0.58378891  0.29362623    -0.74900
O440        O  0.08099856  0.63163631  0.22221086    -0.73600
Cu441      Cu  0.48373410  0.61821790  0.20352538     1.04600
Cu442      Cu  0.03215799  0.60693156  0.25894393     1.04300
C443        C  0.07560608  0.64263237  0.18374873     0.92700
C444        C  0.44125688  0.58715203  0.28301337     0.91800
C445        C  0.47877347  0.68181934  0.28273911     0.83900
C446        C  0.53210973  0.54022145  0.18044186     0.90200
O447        O  0.18117735  0.82128880  0.03577988    -0.73500
O448        O  0.06098047  0.77964646  0.07522664    -0.74500
O449        O  0.14530439  0.75991234  0.09220956    -0.63100
O450        O  0.09849826  0.84320304  0.51903965    -0.71600
O451        O  0.10147805  0.79301796  0.45809264    -0.71100
O452        O  0.14984076  0.71051970  0.03030378    -0.62400
O453        O  0.06662160  0.73173305  0.51228363    -0.74900
O454        O  0.18367001  0.76981243  0.47612077    -0.73600
Cu455      Cu  0.12111146  0.80287099  0.05797390     1.04600
Cu456      Cu  0.12542286  0.74985544  0.49231430     1.04300
C457        C  0.19809025  0.80408653  0.49607680     0.92700
C458        C  0.04840667  0.74538892  0.55226158     0.91800
C459        C  0.15134718  0.72156980  0.07344942     0.83900
C460        C  0.09818282  0.83186755  0.47568272     0.90200
O461        O  0.29287279  0.93732131  0.09606150    -0.73500
O462        O  0.20987282  0.55762517  0.09626665    -0.74500
O463        O  0.31041840  0.01118312  0.06173889    -0.63100
O464        O  0.20198751  0.96354241  0.10684913    -0.71600
O465        O  0.25970340  0.55837173  0.19812918    -0.71100
O466        O  0.33280452  0.54346049  0.07733790    -0.62400
O467        O  0.26011748  0.60118894  0.12514217    -0.74900
O468        O  0.31585195  0.97415123  0.15886318    -0.73600
Cu469      Cu  0.25606785  0.98654270  0.08245638     1.04600
Cu470      Cu  0.29756429  0.55249659  0.13892112     1.04300
C471        C  0.31629796  0.93971326  0.13037911     0.92700
C472        C  0.22156828  0.59465905  0.11101293     0.91800
C473        C  0.32942431  0.04224764  0.08343502     0.83900
C474        C  0.19602387  0.97063889  0.15000729     0.90200
O475        O  0.00168800  0.90128266  0.34984571    -0.73500
O476        O  0.40874635  0.89088285  0.25662758    -0.74500
O477        O  0.42000689  0.85905683  0.34208388    -0.63100
O478        O  0.49049341  0.92590034  0.26569005    -0.71600
O479        O  0.03206621  0.87150425  0.22822177    -0.71100
O480        O  0.95751790  0.80599002  0.29737576    -0.62400
O481        O  0.44925865  0.83876716  0.21535162    -0.74900
O482        O  0.03909181  0.84521597  0.31182527    -0.73600
Cu483      Cu  0.45359977  0.89622225  0.30497170     1.04600
Cu484      Cu  0.99513216  0.83799039  0.26189245     1.04300
C485        C  0.03541810  0.87632195  0.34511411     0.92700
C486        C  0.41676327  0.86511137  0.21913613     0.91800
C487        C  0.43033104  0.82026363  0.33154600     0.83900
C488        C  0.52299836  0.91006965  0.23758859     0.90200
O489        O  0.28390432  0.98650382  0.42541642    -0.73500
O490        O  0.22657005  0.96837601  0.30984356    -0.74500
O491        O  0.30060819  0.50904940  0.32990399    -0.63100
O492        O  0.20852523  0.93542603  0.39047806    -0.71600
O493        O  0.16067475  0.98809044  0.41436849    -0.71100
O494        O  0.28181729  0.53905230  0.40174303    -0.62400
O495        O  0.19016633  0.52489480  0.39123003    -0.74900
O496        O  0.28667748  0.46179667  0.43227393    -0.73600
Cu497      Cu  0.25605329  0.97474884  0.36702253     1.04600
Cu498      Cu  0.23763274  0.49335732  0.41329742     1.04900
C499        C  0.31858005  0.44485908  0.40424933     0.92700
C500        C  0.18524518  0.51847953  0.34872077     0.91800
C501        C  0.30513481  0.53837862  0.36339835     0.83900
C502        C  0.16902016  0.94849244  0.40620773     0.90200
O503        O  0.34094370  0.77357585  0.06337202    -0.73500
O504        O  0.34417336  0.67327472  0.46144846    -0.74500
O505        O  0.37195868  0.68895605  0.05333723    -0.63100
O506        O  0.31625659  0.75906218  0.97266933    -0.71600
O507        O  0.38221193  0.78105449  0.45090666    -0.71100
O508        O  0.43578552  0.70285982  0.51771871    -0.62400
O509        O  0.40669837  0.69392240  0.42939223    -0.74900
O510        O  0.40914193  0.78863046  0.03973281    -0.73600
Cu511      Cu  0.34086389  0.72274260  0.01336121     1.04600
Cu512      Cu  0.41071870  0.74185101  0.48332632     1.04300
C513        C  0.37445697  0.79681600  0.06790637     0.92700
C514        C  0.37507268  0.66811167  0.42884200     0.91800
C515        C  0.41422233  0.68632002  0.54828553     0.83900
C516        C  0.34053177  0.78319668  0.45191342     0.90200
C517        C  0.37657579  0.04491276  0.01619792    -0.20900
C518        C  0.35322061  0.06884049  0.05484706    -0.07500
C519        C  0.36718133  0.51364794  0.97018642     0.13400
C520        C  0.37746566  0.48700899  0.42759488    -0.21000
C521        C  0.36251281  0.44560227  0.42229248    -0.07500
C522        C  0.35207451  0.02814354  0.47930830     0.13400
C523        C  0.37326246  0.99450536  0.44242177    -0.24300
H524        H  0.40863203  0.03125564  0.01968664     0.14700
H525        H  0.38492785  0.50088459  0.39732664     0.14700
C526        C  0.37070103  0.56008005  0.97458730    -0.24300
H527        H  0.40886121  0.98952640  0.44679187     0.04900
H528        H  0.37092008  0.00364723  0.40840146     0.08100
H529        H  0.35687171  0.96442308  0.44365485     0.08100
H530        H  0.38999162  0.57205945  0.00383090     0.08100
H531        H  0.33718041  0.57521310  0.98052735     0.08100
H532        H  0.38825294  0.56847927  0.94342359     0.04900
C533        C  0.17015877  0.94007484  0.24262752    -0.20900
C534        C  0.15552854  0.54563475  0.33003521    -0.07500
C535        C  0.13517591  0.52452381  0.29269809     0.13400
C536        C  0.15585393  0.52540331  0.24928851    -0.21000
C537        C  0.15437906  0.96249975  0.17333462    -0.07500
C538        C  0.15887262  0.92983101  0.19766870     0.13400
C539        C  0.16111293  0.88526486  0.17369969    -0.24300
H540        H  0.18037326  0.91547840  0.26027940     0.14700
H541        H  0.14651106  0.50289013  0.22142026     0.14700
C542        C  0.10073863  0.49275482  0.29890530    -0.24300
H543        H  0.13623625  0.86713244  0.19096517     0.04900
H544        H  0.19466679  0.87151777  0.17475928     0.08100
H545        H  0.15400070  0.88300431  0.13733469     0.08100
H546        H  0.09044033  0.49353487  0.33576118     0.08100
H547        H  0.11415675  0.46095357  0.28388725     0.08100
H548        H  0.07116279  0.49946176  0.28146875     0.04900
C549        C  0.01670940  0.67512422  0.55264670    -0.20900
C550        C  0.01551593  0.71815183  0.57175067    -0.07500
C551        C  0.98314524  0.73192829  0.10852609     0.13400
C552        C  0.44725422  0.70578871  0.11592435    -0.21000
C553        C  0.44081677  0.67151993  0.58183024    -0.07500
C554        C  0.48011925  0.65062019  0.56109977     0.13400
C555        C  0.48034178  0.60537022  0.53998362    -0.24300
H556        H  0.04454588  0.66123284  0.52957257     0.14700
H557        H  0.41951504  0.71774493  0.14024085     0.14700
C558        C  0.98472333  0.77357839  0.13827326    -0.24300
H559        H  0.50737587  0.58841492  0.55280467     0.04900
H560        H  0.48565348  0.60187867  0.50213618     0.08100
H561        H  0.44854786  0.59117554  0.54929543     0.08100
H562        H  0.98186250  0.79885477  0.11780584     0.08100
H563        H  0.01599131  0.77615617  0.15536366     0.08100
H564        H  0.95676769  0.77662673  0.16493416     0.04900
C565        C  0.26407308  0.84943803  0.99376906    -0.20900
C566        C  0.23372488  0.82312206  0.47082575    -0.07500
C567        C  0.24329497  0.80849976  0.42311315     0.13400
C568        C  0.28749208  0.80557939  0.40570495    -0.21000
C569        C  0.31960908  0.81789483  0.43565813    -0.07500
C570        C  0.30715971  0.85010764  0.97253465     0.13400
C571        C  0.34165312  0.87797463  0.99349792    -0.24300
H572        H  0.25590864  0.86577840  0.02842564     0.14700
H573        H  0.29648252  0.78659486  0.37265517     0.14700
C574        C  0.20876136  0.79348036  0.39102965    -0.24300
H575        H  0.32682945  0.90144332  0.02222235     0.04900
H576        H  0.35750124  0.89484403  0.96730734     0.08100
H577        H  0.36748497  0.85934790  0.00595934     0.08100
H578        H  0.17474016  0.80071843  0.40725601     0.08100
H579        H  0.21316492  0.75931071  0.37891109     0.08100
H580        H  0.21235400  0.80970328  0.36103858     0.04900
C581        C  0.09372835  0.48946246  0.15160418    -0.20900
C582        C  0.54869897  0.50069183  0.15178309    -0.07500
C583        C  0.52006838  0.47057329  0.13096336     0.13400
C584        C  0.54414561  0.94749360  0.17769601    -0.21000
C585        C  0.55195524  0.93865435  0.22071693    -0.07500
C586        C  0.06285160  0.97000153  0.25604111     0.13400
C587        C  0.07360238  0.96092056  0.30200085    -0.24300
H588        H  0.11765468  0.51343310  0.15926823     0.14700
H589        H  0.53717123  0.92230488  0.15053613     0.14700
C590        C  0.47316059  0.48136661  0.12320695    -0.24300
H591        H  0.09774988  0.98318267  0.31734837     0.04900
H592        H  0.08795872  0.92883018  0.29809684     0.08100
H593        H  0.04324300  0.96454895  0.32597757     0.08100
H594        H  0.47314145  0.50518736  0.10057268     0.08100
H595        H  0.45412397  0.49365269  0.15641214     0.08100
H596        H  0.45604072  0.45364657  0.10644333     0.04900
C597        C  0.97136402  0.73533039  0.35366646    -0.20900
C598        C  0.45224947  0.71374210  0.31549356    -0.07500
C599        C  0.40729565  0.72361832  0.30978559     0.13400
C600        C  0.38809998  0.76108112  0.33448986    -0.21000
C601        C  0.41506036  0.78955607  0.35897093    -0.07500
C602        C  0.95111880  0.77261020  0.37755888     0.13400
C603        C  0.97458693  0.79837284  0.41452234    -0.24300
H604        H  0.00347295  0.72556564  0.36226216     0.14700
H605        H  0.35747868  0.77244039  0.32417049     0.14700
C606        C  0.37985142  0.69661907  0.27700906    -0.24300
H607        H  0.97638178  0.78136719  0.44366772     0.04900
H608        H  0.95710386  0.82895263  0.42712898     0.08100
H609        H  0.00864084  0.80388619  0.40083363     0.08100
H610        H  0.38038628  0.66413751  0.28366902     0.08100
H611        H  0.39226357  0.69728283  0.24104655     0.08100
H612        H  0.34469325  0.70774707  0.28116927     0.04900
C613        C  0.33907038  0.57033297  0.85826756     0.79600
N614        N  0.34054287  0.60425912  0.89192174    -0.78700
C615        C  0.37373746  0.63187521  0.89084253     0.82100
N616        N  0.40596874  0.62505971  0.85551899    -0.78600
C617        C  0.40487143  0.59174074  0.82078268     0.82200
N618        N  0.37117505  0.56435080  0.82219172    -0.80300
C619        C  0.39025690  0.86632773  0.67880530     0.79600
N620        N  0.39380597  0.83330166  0.64343225    -0.78700
C621        C  0.37212190  0.83378133  0.60527929     0.82100
N622        N  0.34682111  0.86801557  0.60228925    -0.78600
C623        C  0.34359607  0.90214687  0.63632861     0.82200
N624        N  0.36534031  0.90102608  0.67485939    -0.80300
C625        C  0.13185734  0.91770539  0.91056922     0.79600
N626        N  0.12996573  0.89241469  0.94325412    -0.78700
C627        C  0.09755119  0.86319403  0.94451132     0.82100
N628        N  0.06855449  0.85819480  0.91182473    -0.78600
C629        C  0.06924942  0.88280608  0.87939925     0.82200
N630        N  0.10079779  0.91270961  0.87909180    -0.80300
C631        C  0.15345317  0.68904383  0.60224757     0.79600
N632        N  0.18799810  0.66063610  0.59557376    -0.78700
C633        C  0.18683922  0.62810158  0.61893622     0.82100
N634        N  0.15068493  0.62371823  0.64796461    -0.78600
C635        C  0.11561066  0.65120056  0.65431670     0.82200
N636        N  0.11699589  0.68371213  0.63090268    -0.80300
O637        O  0.03679935  0.64237076  0.66940982    -0.73500
O638        O  0.43415292  0.59493008  0.74326919    -0.74500
O639        O  0.46754227  0.67259624  0.74205196    -0.63100
O640        O  0.50181015  0.56201742  0.66766809    -0.71600
O641        O  0.04834564  0.55197077  0.71873714    -0.71100
O642        O  0.01108896  0.66229858  0.79555518    -0.62400
O643        O  0.48096776  0.58378483  0.79362235    -0.74900
O644        O  0.08100812  0.63163732  0.72221566    -0.73600
Cu645      Cu  0.48373381  0.61821754  0.70352430     1.04600
Cu646      Cu  0.03216458  0.60693219  0.75894569     1.04300
C647        C  0.07561719  0.64263818  0.68375543     0.92700
C648        C  0.44125628  0.58714880  0.78300899     0.91800
C649        C  0.47877473  0.68181652  0.78274162     0.83900
C650        C  0.53210681  0.54021957  0.68043863     0.90200
O651        O  0.18117558  0.82129388  0.53577503    -0.73500
O652        O  0.06098613  0.77964032  0.57523247    -0.74500
O653        O  0.14531358  0.75991731  0.59221109    -0.63100
O654        O  0.09850532  0.84320816  0.01904027    -0.71600
O655        O  0.10147986  0.79302407  0.95809265    -0.71100
O656        O  0.14985026  0.71052200  0.53030776    -0.62400
O657        O  0.06661397  0.73173823  0.01227817    -0.74900
O658        O  0.18366877  0.76981047  0.97612253    -0.73600
Cu659      Cu  0.12111291  0.80287088  0.55797406     1.04600
Cu660      Cu  0.12541870  0.74985726  0.99231231     1.04300
C661        C  0.19809122  0.80408264  0.99608099     0.92700
C662        C  0.04839693  0.74539734  0.05225442     0.91800
C663        C  0.15135737  0.72157436  0.57345309     0.83900
C664        C  0.09818912  0.83187370  0.97568329     0.90200
O665        O  0.29288039  0.93732617  0.59605966    -0.73500
O666        O  0.20988224  0.55763530  0.59627336    -0.74500
O667        O  0.31041810  0.01118823  0.56173206    -0.63100
O668        O  0.20199337  0.96353928  0.60685035    -0.71600
O669        O  0.25970901  0.55837017  0.69813390    -0.71100
O670        O  0.33281304  0.54346255  0.57734462    -0.62400
O671        O  0.26012963  0.60119402  0.62515237    -0.74900
O672        O  0.31585660  0.97415738  0.65886217    -0.73600
Cu673      Cu  0.25607061  0.98654386  0.58245406     1.04600
Cu674      Cu  0.29757149  0.55249678  0.63892716     1.04300
C675        C  0.31630426  0.93971925  0.63037834     0.92700
C676        C  0.22158020  0.59466767  0.61102254     0.91800
C677        C  0.32942236  0.04225420  0.58342768     0.83900
C678        C  0.19602971  0.97063652  0.65000860     0.90200
O679        O  0.00169116  0.90128627  0.84984855    -0.73500
O680        O  0.40874323  0.89088191  0.75663418    -0.74500
O681        O  0.42000934  0.85905359  0.84208944    -0.63100
O682        O  0.49049153  0.92589807  0.76569172    -0.71600
O683        O  0.03206508  0.87150091  0.72822577    -0.71100
O684        O  0.95752019  0.80598782  0.79738461    -0.62400
O685        O  0.44925389  0.83876698  0.71535474    -0.74900
O686        O  0.03909280  0.84521709  0.81183124    -0.73600
Cu687      Cu  0.45360026  0.89621913  0.80497535     1.04600
Cu688      Cu  0.99513250  0.83798789  0.76189844     1.04300
C689        C  0.03542116  0.87632559  0.84511741     0.92700
C690        C  0.41675948  0.86511204  0.71914131     0.91800
C691        C  0.43033157  0.82026006  0.83154998     0.83900
C692        C  0.52299459  0.91006710  0.73758787     0.90200
O693        O  0.28391065  0.98650403  0.92541565    -0.73500
O694        O  0.22658122  0.96838485  0.80984133    -0.74500
O695        O  0.30060645  0.50904842  0.82989699    -0.63100
O696        O  0.20853252  0.93543004  0.89047172    -0.71600
O697        O  0.16068355  0.98809479  0.91436659    -0.71100
O698        O  0.28181494  0.53905249  0.90173562    -0.62400
O699        O  0.19016423  0.52489033  0.89122612    -0.74900
O700        O  0.28668058  0.46179871  0.93226731    -0.73600
Cu701      Cu  0.25606197  0.97475409  0.86702086     1.04600
Cu702      Cu  0.23763370  0.49335627  0.91329227     1.04900
C703        C  0.31858251  0.44486010  0.90424262     0.92700
C704        C  0.18524201  0.51847517  0.84871711     0.91800
C705        C  0.30513250  0.53837815  0.86339094     0.83900
C706        C  0.16902799  0.94849659  0.90620340     0.90200
O707        O  0.34094707  0.77358204  0.56337583    -0.73500
O708        O  0.34417142  0.67327168  0.96144128    -0.74500
O709        O  0.37195856  0.68896253  0.55334585    -0.63100
O710        O  0.31625876  0.75906552  0.47267373    -0.71600
O711        O  0.38221002  0.78105277  0.95090562    -0.71100
O712        O  0.43578486  0.70285213  0.01770756    -0.62400
O713        O  0.40669526  0.69392132  0.92938458    -0.74900
O714        O  0.40914462  0.78863699  0.53973426    -0.73600
Cu715      Cu  0.34086590  0.72274760  0.51336717     1.04600
Cu716      Cu  0.41071641  0.74184686  0.98332112     1.04300
C717        C  0.37446037  0.79682234  0.56790856     0.92700
C718        C  0.37507012  0.66811004  0.92883437     0.91800
C719        C  0.41422254  0.68631267  0.04827494     0.83900
C720        C  0.34053006  0.78319477  0.95191137     0.90200
C721        C  0.37656928  0.04492680  0.51618829    -0.20900
C722        C  0.35321326  0.06885066  0.55483950    -0.07500
C723        C  0.36718384  0.51364961  0.47018836     0.13400
C724        C  0.37746730  0.48700907  0.92759247    -0.21000
C725        C  0.36251488  0.44560206  0.92228628    -0.07500
C726        C  0.35208028  0.02812950  0.97931847     0.13400
C727        C  0.37326243  0.99448019  0.94244098    -0.24300
H728        H  0.40862887  0.03127461  0.51967344     0.14700
H729        H  0.38493212  0.50088624  0.89732565     0.14700
C730        C  0.37070441  0.56008129  0.47458636    -0.24300
H731        H  0.40885849  0.98949241  0.94681629     0.04900
H732        H  0.37092846  0.00361553  0.90841635     0.08100
H733        H  0.35686072  0.96440413  0.94368035     0.08100
H734        H  0.38999356  0.57206209  0.50383042     0.08100
H735        H  0.33718393  0.57521477  0.48052407     0.08100
H736        H  0.38825851  0.56847819  0.44342262     0.04900
C737        C  0.17016851  0.94007557  0.74263220    -0.20900
C738        C  0.15552556  0.54563198  0.83003338    -0.07500
C739        C  0.13517373  0.52452457  0.79269378     0.13400
C740        C  0.15585308  0.52540725  0.74928544    -0.21000
C741        C  0.15438587  0.96249335  0.67333644    -0.07500
C742        C  0.15888293  0.92982718  0.69767368     0.13400
C743        C  0.16112833  0.88525974  0.67370864    -0.24300
H744        H  0.18038615  0.91548174  0.76028624     0.14700
H745        H  0.14650778  0.50289859  0.72141367     0.14700
C746        C  0.10073326  0.49275755  0.79889671    -0.24300
H747        H  0.13625434  0.86712625  0.69097626     0.04900
H748        H  0.19468389  0.87151682  0.67476964     0.08100
H749        H  0.15401575  0.88299508  0.63734330     0.08100
H750        H  0.09043462  0.49353424  0.83575192     0.08100
H751        H  0.11414856  0.46095620  0.78387476     0.08100
H752        H  0.07115821  0.49946944  0.78146153     0.04900
C753        C  0.01670918  0.67513187  0.05266322    -0.20900
C754        C  0.01550153  0.71816491  0.07174390    -0.07500
C755        C  0.98318154  0.73190152  0.60855850     0.13400
C756        C  0.44725782  0.70578477  0.61593784    -0.21000
C757        C  0.44081817  0.67151842  0.08182198    -0.07500
C758        C  0.48012304  0.65061998  0.06109610     0.13400
C759        C  0.48035058  0.60536776  0.03998768    -0.24300
H760        H  0.04455751  0.66123711  0.02960860     0.14700
H761        H  0.41952247  0.71773902  0.64026023     0.14700
C762        C  0.98480963  0.77351734  0.63836543    -0.24300
H763        H  0.50738163  0.58841685  0.05281894     0.04900
H764        H  0.48567060  0.60187025  0.00214029     0.08100
H765        H  0.44855536  0.59117292  0.04929479     0.08100
H766        H  0.98192511  0.79883381  0.61795566     0.08100
H767        H  0.01610691  0.77605202  0.65540498     0.08100
H768        H  0.95689364  0.77653974  0.66507061     0.04900
C769        C  0.26407085  0.84944312  0.49376236    -0.20900
C770        C  0.23372632  0.82311858  0.97083134    -0.07500
C771        C  0.24329411  0.80850092  0.92311750     0.13400
C772        C  0.28749034  0.80558339  0.90570675    -0.21000
C773        C  0.31960862  0.81789526  0.93565937    -0.07500
C774        C  0.30715867  0.85011007  0.47253015     0.13400
C775        C  0.34165067  0.87797977  0.49349206    -0.24300
H776        H  0.25590480  0.86578683  0.52841737     0.14700
H777        H  0.29647951  0.78660358  0.87265403     0.14700
C778        C  0.20875921  0.79348490  0.89103430    -0.24300
H779        H  0.32682570  0.90144914  0.52221516     0.04900
H780        H  0.35749776  0.89484867  0.46730027     0.08100
H781        H  0.36748324  0.85935525  0.50595536     0.08100
H782        H  0.17473861  0.80072095  0.90726257     0.08100
H783        H  0.21316316  0.75931593  0.87891082     0.08100
H784        H  0.21234993  0.80971193  0.86104631     0.04900
C785        C  0.09372250  0.48946293  0.65159801    -0.20900
C786        C  0.54869353  0.50068874  0.65178098    -0.07500
C787        C  0.52006053  0.47056899  0.63096800     0.13400
C788        C  0.54413549  0.94749569  0.67769689    -0.21000
C789        C  0.55195078  0.93865183  0.72071431    -0.07500
C790        C  0.06285071  0.96999707  0.75603634     0.13400
C791        C  0.07360440  0.96091633  0.80199523    -0.24300
H792        H  0.11765158  0.51343248  0.65925518     0.14700
H793        H  0.53715300  0.92230971  0.65053737     0.14700
C794        C  0.47314968  0.48136091  0.62322136    -0.24300
H795        H  0.09775393  0.98317745  0.81734032     0.04900
H796        H  0.08795946  0.92882536  0.79809092     0.08100
H797        H  0.04324654  0.96454665  0.82597403     0.08100
H798        H  0.47312414  0.50518136  0.60058717     0.08100
H799        H  0.45411884  0.49364686  0.65642991     0.08100
H800        H  0.45602823  0.45364034  0.60646158     0.04900
C801        C  0.97137954  0.73533221  0.85367620    -0.20900
C802        C  0.45225173  0.71373898  0.81549761    -0.07500
C803        C  0.40729731  0.72361500  0.80979182     0.13400
C804        C  0.38810177  0.76107719  0.83449768    -0.21000
C805        C  0.41506315  0.78955271  0.85897641    -0.07500
C806        C  0.95113317  0.77261058  0.87757150     0.13400
C807        C  0.97460012  0.79837188  0.91453669    -0.24300
H808        H  0.00348998  0.72556842  0.86226906     0.14700
H809        H  0.35747960  0.77243601  0.82418016     0.14700
C810        C  0.37985238  0.69661703  0.77701489    -0.24300
H811        H  0.97639508  0.78136422  0.94368057     0.04900
H812        H  0.95711596  0.82895082  0.92714515     0.08100
H813        H  0.00865389  0.80388677  0.90084912     0.08100
H814        H  0.38038788  0.66413475  0.78367252     0.08100
H815        H  0.39226350  0.69728274  0.74105255     0.08100
H816        H  0.34469409  0.70774464  0.78117675     0.04900
C817        C  0.83062022  0.08678231  0.35990894     0.79600
N818        N  0.83343170  0.11520243  0.39942098    -0.78700
C819        C  0.86813608  0.14147563  0.40396878     0.82100
N820        N  0.89941038  0.13962241  0.36866782    -0.78600
C821        C  0.89731530  0.11310116  0.32871526     0.82200
N822        N  0.86274609  0.08609174  0.32404558    -0.80300
C823        C  0.90867288  0.39207668  0.15594989     0.79600
N824        N  0.90511782  0.36000764  0.12060992    -0.78700
C825        C  0.87250734  0.36004492  0.09204186     0.82100
N826        N  0.84261659  0.39260334  0.09934290    -0.78600
C827        C  0.84647155  0.42590957  0.13361758     0.82200
N828        N  0.87977804  0.42558619  0.16184146    -0.80300
C829        C  0.65449764  0.38693422  0.38009731     0.79600
N830        N  0.64675158  0.35925664  0.40939074    -0.78700
C831        C  0.61403219  0.33053489  0.40305297     0.82100
N832        N  0.58846338  0.33056491  0.36702964    -0.78600
C833        C  0.59481189  0.35963345  0.33873962     0.82200
N834        N  0.62796462  0.38706539  0.34553038    -0.80300
C835        C  0.64244665  0.15141926  0.06681020     0.79600
N836        N  0.67425587  0.12193464  0.07000270    -0.78700
C837        C  0.67265861  0.10180404  0.10701288     0.82100
N838        N  0.63847813  0.11204619  0.14089991    -0.78600
C839        C  0.60570548  0.14092050  0.13758075     0.82200
N840        N  0.60831911  0.16011267  0.10033696    -0.80300
O841        O  0.52601982  0.14601751  0.16022872    -0.73500
O842        O  0.92487935  0.11438851  0.24975697    -0.74500
O843        O  0.94980380  0.19123181  0.22555724    -0.63100
O844        O  0.99572100  0.07369174  0.18956944    -0.71600
O845        O  0.53915845  0.08851326  0.24624639    -0.71100
O846        O  0.49930350  0.20294127  0.27649149    -0.62400
O847        O  0.97024504  0.13044647  0.30434864    -0.74900
O848        O  0.57142885  0.15529087  0.21537034    -0.73600
Cu849      Cu  0.97268682  0.13166600  0.20364494     1.04600
Cu850      Cu  0.52151245  0.14515600  0.26206856     1.04300
C851        C  0.56581499  0.14894312  0.17262723     0.92700
C852        C  0.93248024  0.11792708  0.29191255     0.91800
C853        C  0.96318497  0.21300571  0.26166293     0.83900
C854        C  0.02406975  0.06277495  0.21473650     0.90200
O855        O  0.69634535  0.25792989  0.97253378    -0.73500
O856        O  0.57996895  0.26216813  0.04503853    -0.74500
O857        O  0.65635265  0.21659303  0.04400078    -0.63100
O858        O  0.62221030  0.30685536  0.47415552    -0.71600
O859        O  0.59990113  0.25990329  0.41827746    -0.71100
O860        O  0.63253476  0.16720474  0.99133300    -0.62400
O861        O  0.55752519  0.21495153  0.48935416    -0.74900
O862        O  0.67420379  0.20869988  0.41822574    -0.73600
Cu863      Cu  0.63947081  0.26252433  0.01060200     1.04600
Cu864      Cu  0.61508797  0.21105154  0.45236284     1.04300
C865        C  0.70172560  0.23597923  0.43243754     0.92700
C866        C  0.55281793  0.23425416  0.53062181     0.91800
C867        C  0.64616638  0.17869194  0.03123094     0.83900
C868        C  0.61020472  0.29774066  0.43349014     0.90200
O869        O  0.77983485  0.45883516  0.11902482    -0.73500
O870        O  0.71827489  0.03901896  0.07560490    -0.74500
O871        O  0.78054745  0.50253596  0.04779735    -0.63100
O872        O  0.71017808  0.51527094  0.16776486    -0.71600
O873        O  0.72446085  0.98946153  0.17505109    -0.71100
O874        O  0.82011481  0.05404170  0.12623097    -0.62400
O875        O  0.72572743  0.06791205  0.14727464    -0.74900
O876        O  0.83026249  0.50019027  0.15106105    -0.73600
Cu877      Cu  0.74355867  0.50733409  0.10656135     1.04600
Cu878      Cu  0.77230043  0.02241166  0.15444381     1.04300
C879        C  0.81710269  0.46342219  0.13608935     0.92700
C880        C  0.70735778  0.06821670  0.10996490     0.91800
C881        C  0.81952441  0.51678228  0.04502921     0.83900
C882        C  0.72218605  0.54132396  0.20129702     0.90200
O883        O  0.54424911  0.40064323  0.30584631    -0.73500
O884        O  0.94934720  0.41833879  0.22082104    -0.74500
O885        O  0.95075455  0.39035392  0.30673266    -0.63100
O886        O  0.04219282  0.42757493  0.21748019    -0.71600
O887        O  0.55809625  0.36259639  0.18180171    -0.71100
O888        O  0.46631575  0.32741905  0.26567583    -0.62400
O889        O  0.96624081  0.35485144  0.18256085    -0.74900
O890        O  0.55731009  0.33532065  0.27070605    -0.73600
Cu891      Cu  0.99676455  0.41174379  0.26421143     1.04600
Cu892      Cu  0.51270687  0.34304165  0.22431751     1.04300
C893        C  0.56389537  0.36506452  0.30347437     0.92700
C894        C  0.94304291  0.38869307  0.18796348     0.91800
C895        C  0.94390204  0.35132850  0.29817478     0.83900
C896        C  0.06014173  0.40170413  0.18315085     0.90200
O897        O  0.81386476  0.43534389  0.36146915    -0.73500
O898        O  0.70994705  0.49184277  0.32048133    -0.74500
O899        O  0.80024044  0.01719644  0.34572434    -0.63100
O900        O  0.71955105  0.41460109  0.34742064    -0.71600
O901        O  0.69479954  0.44518630  0.41750059    -0.71100
O902        O  0.75419846  0.06999586  0.37599803    -0.62400
O903        O  0.68120349  0.02296499  0.33577102    -0.74900
O904        O  0.73537179  0.03781144  0.45346680    -0.73600
Cu905      Cu  0.76134371  0.46100744  0.33744072     1.04600
Cu906      Cu  0.70597043  0.03124440  0.39588996     1.04900
C907        C  0.77359565  0.02055441  0.45273407     0.92700
C908        C  0.69419843  0.99213730  0.30486956     0.91800
C909        C  0.79299951  0.05666043  0.35845640     0.83900
C910        C  0.69219989  0.41609781  0.38285796     0.90200
O911        O  0.83553217  0.30067905  0.05537287    -0.73500
O912        O  0.83767162  0.18651347  0.47318250    -0.74500
O913        O  0.86487848  0.21926875  0.06442062    -0.63100
O914        O  0.81255439  0.26733845  0.96331821    -0.71600
O915        O  0.87904597  0.28054488  0.43273001    -0.71100
O916        O  0.92925874  0.23304996  0.52990257    -0.62400
O917        O  0.90335734  0.20078419  0.44183077    -0.74900
O918        O  0.90233050  0.31317308  0.02516098    -0.73600
Cu919      Cu  0.83507033  0.24332580  0.01536543     1.04600
Cu920      Cu  0.90563929  0.25749876  0.48172239     1.04300
C921        C  0.86938759  0.32364225  0.05500405     0.92700
C922        C  0.86997410  0.17704344  0.44248180     0.91800
C923        C  0.90713212  0.21935217  0.56218460     0.83900
C924        C  0.83777037  0.27710337  0.43007207     0.90200
C925        C  0.85475423  0.45200635  0.00411391    -0.20900
C926        C  0.85040852  0.49545094  0.00744592    -0.07500
C927        C  0.82150236  0.09684418  0.04425517     0.13400
C928        C  0.79526018  0.08151545  0.50866880    -0.21000
C929        C  0.80725459  0.04282090  0.48033612    -0.07500
C930        C  0.86368166  0.42682081  0.46129375     0.13400
C931        C  0.86700682  0.38054833  0.45800153    -0.24300
H932        H  0.84662322  0.43760970  0.03379515     0.14700
H933        H  0.76446762  0.09779265  0.50577381     0.14700
C934        C  0.80657971  0.13548252  0.07755025    -0.24300
H935        H  0.83594534  0.36890688  0.47319334     0.04900
H936        H  0.89509497  0.37264943  0.47685298     0.08100
H937        H  0.87354446  0.36492160  0.42202459     0.08100
H938        H  0.82957065  0.14243416  0.10485952     0.08100
H939        H  0.77298049  0.13132605  0.09368284     0.08100
H940        H  0.80532275  0.16231921  0.05915529     0.04900
C941        C  0.67715799  0.58224335  0.32378705    -0.20900
C942        C  0.67136728  0.98240049  0.26332860    -0.07500
C943        C  0.65212027  0.01350725  0.24237242     0.13400
C944        C  0.63876760  0.00126702  0.19805552    -0.21000
C945        C  0.69235262  0.55097871  0.24389354    -0.07500
C946        C  0.69959405  0.58353083  0.28077640     0.13400
C947        C  0.73169173  0.61784889  0.27629431    -0.24300
H948        H  0.68658450  0.60326868  0.35357816     0.14700
H949        H  0.62868858  0.02512077  0.17927183     0.14700
C950        C  0.64890982  0.05902360  0.26389336    -0.24300
H951        H  0.72963553  0.64192394  0.30781334     0.04900
H952        H  0.72396797  0.63347102  0.24737932     0.08100
H953        H  0.76618505  0.60502338  0.27075115     0.08100
H954        H  0.68241536  0.07063680  0.27051824     0.08100
H955        H  0.62742379  0.06326376  0.29648790     0.08100
H956        H  0.63436839  0.07841300  0.24122854     0.04900
C957        C  0.50166394  0.17994535  0.55079179    -0.20900
C958        C  0.51747801  0.22072037  0.56172756    -0.07500
C959        C  0.49875716  0.24573083  0.10253759     0.13400
C960        C  0.95622071  0.23598434  0.12017435    -0.21000
C961        C  0.93357953  0.20350183  0.59513284    -0.07500
C962        C  0.96110255  0.17007155  0.57203439     0.13400
C963        C  0.94344854  0.12729091  0.56042685    -0.24300
H964        H  0.51938219  0.15683329  0.52472550     0.14700
H965        H  0.93808030  0.25850982  0.14644000     0.14700
C966        C  0.52302907  0.28109974  0.12732133    -0.24300
H967        H  0.96642358  0.10411940  0.57023489     0.04900
H968        H  0.93975022  0.11959471  0.52313338     0.08100
H969        H  0.91089136  0.12574754  0.57976891     0.08100
H970        H  0.52373594  0.30783419  0.10855825     0.08100
H971        H  0.55727009  0.27062250  0.13133901     0.08100
H972        H  0.50711198  0.29052908  0.16234114     0.04900
C973        C  0.74188295  0.29022366  0.90136700    -0.20900
C974        C  0.73713071  0.24742148  0.40136472    -0.07500
C975        C  0.76989646  0.21923417  0.37691670     0.13400
C976        C  0.81158050  0.23548096  0.36605142    -0.21000
C977        C  0.81941656  0.27698364  0.38583580    -0.07500
C978        C  0.78323119  0.30455543  0.88883604     0.13400
C979        C  0.78853395  0.34867716  0.88281102    -0.24300
H980        H  0.71481005  0.31226143  0.91392618     0.14700
H981        H  0.83945253  0.21420047  0.35352411     0.14700
C982        C  0.76181689  0.17347330  0.36523050    -0.24300
H983        H  0.76848955  0.35452970  0.85501646     0.04900
H984        H  0.82333148  0.35457003  0.87211710     0.08100
H985        H  0.77713260  0.36993442  0.91510284     0.08100
H986        H  0.73252362  0.16859517  0.34512917     0.08100
H987        H  0.75571184  0.16015662  0.39705017     0.08100
H988        H  0.79048506  0.15692359  0.34385687     0.04900
C989        C  0.55107157  0.01004494  0.25311481    -0.20900
C990        C  0.03748159  0.01991456  0.21221480    -0.07500
C991        C  0.03642044  0.98885133  0.17289942     0.13400
C992        C  0.03513450  0.42864388  0.12150957    -0.21000
C993        C  0.07327899  0.41782310  0.14109968    -0.07500
C994        C  0.60655310  0.44708327  0.14468151     0.13400
C995        C  0.65391413  0.43291978  0.14453131    -0.24300
H996        H  0.55215950  0.03341512  0.28371161     0.14700
H997        H  0.01174136  0.40456929  0.11148631     0.14700
C998        C  0.02538385  0.99853764  0.12735294    -0.24300
H999        H  0.67456823  0.44571117  0.11787452     0.04900
H1000       H  0.65720419  0.39830068  0.13658081     0.08100
H1001       H  0.66657905  0.44302776  0.17832899     0.08100
H1002       H  0.04836454  0.02205856  0.11666477     0.08100
H1003       H  0.99071572  0.01061003  0.12969991     0.08100
H1004       H  0.02865788  0.97023062  0.10034597     0.04900
C1005       C  0.45153368  0.26689478  0.33198892    -0.20900
C1006       C  0.93662713  0.24870601  0.28941723    -0.07500
C1007       C  0.89743478  0.26619586  0.27634476     0.13400
C1008       C  0.88352478  0.30671954  0.29882544    -0.21000
C1009       C  0.91295110  0.33027966  0.32634931    -0.07500
C1010       C  0.43771715  0.30768214  0.35219328     0.13400
C1011       C  0.46154257  0.32985144  0.39127149    -0.24300
H1012       H  0.47725966  0.25165364  0.34693993     0.14700
H1013       H  0.85699727  0.32287700  0.28608386     0.14700
C1014       C  0.87163698  0.24401155  0.23886929    -0.24300
H1015       H  0.45442290  0.31525572  0.42204241     0.04900
H1016       H  0.45145742  0.36342648  0.39975950     0.08100
H1017       H  0.49776041  0.32773117  0.38175197     0.08100
H1018       H  0.86118808  0.21338464  0.24714254     0.08100
H1019       H  0.89205734  0.23918487  0.20571461     0.08100
H1020       H  0.84141032  0.26231393  0.23495937     0.04900
C1021       C  0.83062456  0.08678323  0.85990687     0.79600
N1022       N  0.83343346  0.11520424  0.89941873    -0.78700
C1023       C  0.86813758  0.14147771  0.90396806     0.82100
N1024       N  0.89941453  0.13962333  0.86866922    -0.78600
C1025       C  0.89732184  0.11310073  0.82871718     0.82200
N1026       N  0.86275266  0.08609178  0.82404582    -0.80300
C1027       C  0.90866844  0.39207380  0.65595996     0.79600
N1028       N  0.90511602  0.36000510  0.62061875    -0.78700
C1029       C  0.87250914  0.36004309  0.59204648     0.82100
N1030       N  0.84261923  0.39260247  0.59934465    -0.78600
C1031       C  0.84647155  0.42590864  0.63362052     0.82200
N1032       N  0.87977450  0.42558398  0.66184865    -0.80300
C1033       C  0.65449914  0.38693496  0.88009343     0.79600
N1034       N  0.64675396  0.35925902  0.90938887    -0.78700
C1035       C  0.61403314  0.33053842  0.90305487     0.82100
N1036       N  0.58846149  0.33056851  0.86703373    -0.78600
C1037       C  0.59480874  0.35963608  0.83874236     0.82200
N1038       N  0.62796331  0.38706646  0.84552898    -0.80300
C1039       C  0.64244377  0.15141399  0.56680760     0.79600
N1040       N  0.67425309  0.12192876  0.56999825    -0.78700
C1041       C  0.67265869  0.10179947  0.60700947     0.82100
N1042       N  0.63848111  0.11204357  0.64089935    -0.78600
C1043       C  0.60570836  0.14091830  0.63758210     0.82200
N1044       N  0.60831905  0.16010911  0.60033730    -0.80300
O1045       O  0.52602429  0.14602070  0.66023616    -0.73500
O1046       O  0.92488421  0.11439026  0.74976024    -0.74500
O1047       O  0.94980943  0.19123314  0.72556302    -0.63100
O1048       O  0.99572105  0.07369142  0.68956894    -0.71600
O1049       O  0.53916379  0.08851482  0.74625981    -0.71100
O1050       O  0.49931447  0.20294820  0.77649627    -0.62400
O1051       O  0.97025315  0.13044161  0.80435015    -0.74900
O1052       O  0.57143718  0.15528948  0.71537438    -0.73600
Cu1053     Cu  0.97268992  0.13166693  0.70364728     1.04600
Cu1054     Cu  0.52152135  0.14516059  0.76207730     1.04300
C1055       C  0.56582051  0.14894293  0.67263178     0.92700
C1056       C  0.93248694  0.11792576  0.79191497     0.91800
C1057       C  0.96319123  0.21300398  0.76167019     0.83900
C1058       C  0.02407105  0.06277245  0.71473342     0.90200
O1059       O  0.69634118  0.25792962  0.47253724    -0.73500
O1060       O  0.57996065  0.26216344  0.54503206    -0.74500
O1061       O  0.65634460  0.21658941  0.54400008    -0.63100
O1062       O  0.62221558  0.30685911  0.97415722    -0.71600
O1063       O  0.59990282  0.25990747  0.91828082    -0.71100
O1064       O  0.63253328  0.16719974  0.49132961    -0.62400
O1065       O  0.55752935  0.21495964  0.98935977    -0.74900
O1066       O  0.67420319  0.20870005  0.91822510    -0.73600
Cu1067     Cu  0.63946407  0.26252097  0.51060063     1.04600
Cu1068     Cu  0.61508961  0.21105603  0.95236601     1.04300
C1069       C  0.70172658  0.23597862  0.93243427     0.92700
C1070       C  0.55282493  0.23425990  0.03062836     0.91800
C1071       C  0.64616201  0.17868746  0.53122879     0.83900
C1072       C  0.61020755  0.29774460  0.93349270     0.90200
O1073       O  0.77983721  0.45883664  0.61902171    -0.73500
O1074       O  0.71828154  0.03901825  0.57560094    -0.74500
O1075       O  0.78054848  0.50254459  0.54779936    -0.63100
O1076       O  0.71017819  0.51527001  0.66776376    -0.71600
O1077       O  0.72446830  0.98945666  0.67504629    -0.71100
O1078       O  0.82011489  0.05405214  0.62623421    -0.62400
O1079       O  0.72572682  0.06790902  0.64727291    -0.74900
O1080       O  0.83026133  0.50019018  0.65106682    -0.73600
Cu1081     Cu  0.74356019  0.50733784  0.60656184     1.04600
Cu1082     Cu  0.77230482  0.02241373  0.65444317     1.04300
C1083       C  0.81710316  0.46342234  0.63609064     0.92700
C1084       C  0.70735972  0.06821386  0.60996179     0.91800
C1085       C  0.81952650  0.51678847  0.54503454     0.83900
C1086       C  0.72218310  0.54132277  0.70129773     0.90200
O1087       O  0.54424573  0.40064572  0.80584884    -0.73500
O1088       O  0.94934163  0.41833656  0.72083294    -0.74500
O1089       O  0.95075572  0.39035182  0.80674580    -0.63100
O1090       O  0.04218807  0.42757626  0.71748930    -0.71600
O1091       O  0.55809497  0.36259543  0.68180566    -0.71100
O1092       O  0.46631039  0.32742291  0.76567853    -0.62400
O1093       O  0.96623658  0.35484961  0.68257256    -0.74900
O1094       O  0.55730448  0.33532199  0.77071122    -0.73600
Cu1095     Cu  0.99676202  0.41174334  0.76422180     1.04600
Cu1096     Cu  0.51270344  0.34304255  0.72432063     1.04300
C1097       C  0.56389087  0.36506661  0.80347826     0.92700
C1098       C  0.94303761  0.38869063  0.68797529     0.91800
C1099       C  0.94390593  0.35132584  0.79818939     0.83900
C1100       C  0.06013695  0.40170591  0.68315955     0.90200
O1101       O  0.81386602  0.43534574  0.86145787    -0.73500
O1102       O  0.70994342  0.49184117  0.82047090    -0.74500
O1103       O  0.80024723  0.01719711  0.84571539    -0.63100
O1104       O  0.71955092  0.41460126  0.84741191    -0.71600
O1105       O  0.69480332  0.44518601  0.91749326    -0.71100
O1106       O  0.75420322  0.06999391  0.87599281    -0.62400
O1107       O  0.68120848  0.02296394  0.83576118    -0.74900
O1108       O  0.73538179  0.03780052  0.95345604    -0.73600
Cu1109     Cu  0.76134293  0.46100783  0.83742975     1.04600
Cu1110     Cu  0.70597756  0.03123868  0.89588042     1.04900
C1111       C  0.77360468  0.02054084  0.95272169     0.92700
C1112       C  0.69420486  0.99213869  0.80485693     0.91800
C1113       C  0.79300489  0.05666048  0.85845145     0.83900
C1114       C  0.69220180  0.41609788  0.88285092     0.90200
O1115       O  0.83553540  0.30067645  0.55537526    -0.73500
O1116       O  0.83766859  0.18651737  0.97317862    -0.74500
O1117       O  0.86488249  0.21926637  0.56442457    -0.63100
O1118       O  0.81255815  0.26733341  0.46332027    -0.71600
O1119       O  0.87904254  0.28054756  0.93272659    -0.71100
O1120       O  0.92925439  0.23305629  0.02990083    -0.62400
O1121       O  0.90335562  0.20078792  0.94182975    -0.74900
O1122       O  0.90233514  0.31316911  0.52516628    -0.73600
Cu1123     Cu  0.83507404  0.24332226  0.51536851     1.04600
Cu1124     Cu  0.90563556  0.25750299  0.98171956     1.04300
C1125       C  0.86939117  0.32363937  0.55500809     0.92700
C1126       C  0.86997271  0.17704682  0.94247993     0.91800
C1127       C  0.90712800  0.21935626  0.06218139     0.83900
C1128       C  0.83776676  0.27710732  0.93006950     0.90200
C1129       C  0.85475653  0.45201086  0.50412630    -0.20900
C1130       C  0.85041098  0.49545497  0.50745334    -0.07500
C1131       C  0.82148910  0.09686295  0.54426533     0.13400
C1132       C  0.79527482  0.08149902  0.00865667    -0.21000
C1133       C  0.80726448  0.04280184  0.98032717    -0.07500
C1134       C  0.86368416  0.42682031  0.96127970     0.13400
C1135       C  0.86701521  0.38054768  0.95798258    -0.24300
H1136       H  0.84662654  0.43761764  0.53380992     0.14700
H1137       H  0.76448591  0.09778068  0.00575770     0.14700
C1138       C  0.80656503  0.13549958  0.57756229    -0.24300
H1139       H  0.83595416  0.36890131  0.97316946     0.04900
H1140       H  0.89510217  0.37265006  0.97683639     0.08100
H1141       H  0.87355800  0.36492462  0.92200489     0.08100
H1142       H  0.82955982  0.14245392  0.60486760     0.08100
H1143       H  0.77296877  0.13133884  0.59369952     0.08100
H1144       H  0.80530046  0.16233633  0.55916813     0.04900
C1145       C  0.67714106  0.58223928  0.82378424    -0.20900
C1146       C  0.67137196  0.98240087  0.76331715    -0.07500
C1147       C  0.65212511  0.01350628  0.74235908     0.13400
C1148       C  0.63877244  0.00126368  0.69804212    -0.21000
C1149       C  0.69234610  0.55097552  0.74389170    -0.07500
C1150       C  0.69958262  0.58352769  0.78077641     0.13400
C1151       C  0.73168112  0.61784598  0.77629966    -0.24300
H1152       H  0.68656220  0.60326573  0.85357704     0.14700
H1153       H  0.62869323  0.02511615  0.67925682     0.14700
C1154       C  0.64891579  0.05902314  0.76387790    -0.24300
H1155       H  0.72962151  0.64192036  0.80781941     0.04900
H1156       H  0.72396153  0.63346887  0.74738396     0.08100
H1157       H  0.76617442  0.60502032  0.77076059     0.08100
H1158       H  0.68242176  0.07063601  0.77050109     0.08100
H1159       H  0.62743115  0.06326488  0.79647342     0.08100
H1160       H  0.63437367  0.07841149  0.74121248     0.04900
C1161       C  0.50166966  0.17995033  0.05079144    -0.20900
C1162       C  0.51748652  0.22072348  0.06173390    -0.07500
C1163       C  0.49874738  0.24573137  0.60252874     0.13400
C1164       C  0.95622179  0.23598430  0.62018030    -0.21000
C1165       C  0.93357607  0.20350348  0.09512722    -0.07500
C1166       C  0.96109651  0.17007260  0.07202550     0.13400
C1167       C  0.94343850  0.12729393  0.06041284    -0.24300
H1168       H  0.51938507  0.15684123  0.02471955     0.14700
H1169       H  0.93807975  0.25850902  0.64644578     0.14700
C1170       C  0.52301837  0.28110277  0.62730946    -0.24300
H1171       H  0.96641097  0.10411887  0.07021835     0.04900
H1172       H  0.93974021  0.11960169  0.02311915     0.08100
H1173       H  0.91088050  0.12575140  0.07975355     0.08100
H1174       H  0.52372203  0.30783650  0.60854544     0.08100
H1175       H  0.55726053  0.27062794  0.63132602     0.08100
H1176       H  0.50710352  0.29053178  0.66233025     0.04900
C1177       C  0.74188716  0.29022499  0.40137521    -0.20900
C1178       C  0.73712881  0.24742033  0.90135823    -0.07500
C1179       C  0.76989672  0.21923394  0.87691326     0.13400
C1180       C  0.81158000  0.23548252  0.86604920    -0.21000
C1181       C  0.81941319  0.27698600  0.88583307    -0.07500
C1182       C  0.78323563  0.30455448  0.38884043     0.13400
C1183       C  0.78853967  0.34867449  0.38280955    -0.24300
H1184       H  0.71481552  0.31226389  0.41393511     0.14700
H1185       H  0.83945354  0.21420297  0.85352449     0.14700
C1186       C  0.76182008  0.17347239  0.86522970    -0.24300
H1187       H  0.76849397  0.35452516  0.35501510     0.04900
H1188       H  0.82333737  0.35456537  0.37211332     0.08100
H1189       H  0.77714014  0.36993420  0.41510011     0.08100
H1190       H  0.73252730  0.16859133  0.84512806     0.08100
H1191       H  0.75571576  0.16015724  0.89705044     0.08100
H1192       H  0.79048935  0.15692365  0.84385704     0.04900
C1193       C  0.55108190  0.01004161  0.75311636    -0.20900
C1194       C  0.03747962  0.01991094  0.71221140    -0.07500
C1195       C  0.03641219  0.98884710  0.67289749     0.13400
C1196       C  0.03512006  0.42864529  0.62152369    -0.21000
C1197       C  0.07326865  0.41782468  0.64110702    -0.07500
C1198       C  0.60654850  0.44708062  0.64467665     0.13400
C1199       C  0.65391074  0.43291799  0.64451940    -0.24300
H1200       H  0.55217749  0.03340978  0.78371348     0.14700
H1201       H  0.01172385  0.40457128  0.61150909     0.14700
C1202       C  0.02536781  0.99853285  0.62735323    -0.24300
H1203       H  0.67456035  0.44570893  0.61785906     0.04900
H1204       H  0.65720112  0.39829890  0.63657000     0.08100
H1205       H  0.66658073  0.44302759  0.67831436     0.08100
H1206       H  0.04834752  0.02205230  0.61665996     0.08100
H1207       H  0.99069982  0.01060689  0.62970642     0.08100
H1208       H  0.02863649  0.97022522  0.60034685     0.04900
C1209       C  0.45154305  0.26690276  0.83199457    -0.20900
C1210       C  0.93663412  0.24870282  0.78942844    -0.07500
C1211       C  0.89744006  0.26619351  0.77636052     0.13400
C1212       C  0.88353055  0.30671618  0.79884484    -0.21000
C1213       C  0.91295916  0.33027543  0.82636641    -0.07500
C1214       C  0.43772167  0.30768879  0.85219968     0.13400
C1215       C  0.46154486  0.32986085  0.89127805    -0.24300
H1216       H  0.47727221  0.25166457  0.84694428     0.14700
H1217       H  0.85700136  0.32287427  0.78610668     0.14700
C1218       C  0.87164022  0.24401143  0.73888570    -0.24300
H1219       H  0.45442578  0.31526520  0.92204921     0.04900
H1220       H  0.45145712  0.36343525  0.89976513     0.08100
H1221       H  0.49776281  0.32774309  0.88175945     0.08100
H1222       H  0.86119313  0.21338328  0.74715670     0.08100
H1223       H  0.89205854  0.23918789  0.70572977     0.08100
H1224       H  0.84141228  0.26231394  0.73497994     0.04900
C1225       C  0.83907706  0.57033253  0.35827426     0.79600
N1226       N  0.84055129  0.60425774  0.39192937    -0.78700
C1227       C  0.87374642  0.63187332  0.39085038     0.82100
N1228       N  0.90597610  0.62505887  0.35552486    -0.78600
C1229       C  0.90487701  0.59174110  0.32078708     0.82200
N1230       N  0.87118036  0.56435128  0.32219685    -0.80300
C1231       C  0.89025661  0.86632301  0.17880454     0.79600
N1232       N  0.89380377  0.83329591  0.14343258    -0.78700
C1233       C  0.87211749  0.83377291  0.10528046     0.82100
N1234       N  0.84681465  0.86800618  0.10229080    -0.78600
C1235       C  0.84359055  0.90213851  0.13632931     0.82200
N1236       N  0.86533810  0.90102003  0.17485850    -0.80300
C1237       C  0.63184521  0.91770416  0.41057618     0.79600
N1238       N  0.62995031  0.89241184  0.44325953    -0.78700
C1239       C  0.59753577  0.86319054  0.44451168     0.82100
N1240       N  0.56854243  0.85819257  0.41182191    -0.78600
C1241       C  0.56924067  0.88280554  0.37939798     0.82200
N1242       N  0.60078896  0.91270946  0.37909534    -0.80300
C1243       C  0.65343888  0.68903521  0.10224170     0.79600
N1244       N  0.68798315  0.66062663  0.09556589    -0.78700
C1245       C  0.68682373  0.62809067  0.11892617     0.82100
N1246       N  0.65066972  0.62370712  0.14795494    -0.78600
C1247       C  0.61559643  0.65119084  0.15430916     0.82200
N1248       N  0.61698221  0.68370363  0.13089728    -0.80300
O1249       O  0.53678597  0.64236036  0.16940473    -0.73500
O1250       O  0.93415655  0.59493018  0.24327151    -0.74500
O1251       O  0.96754393  0.67259635  0.24204995    -0.63100
O1252       O  0.00181492  0.56201830  0.16766780    -0.71600
O1253       O  0.54833918  0.55196868  0.21874318    -0.71100
O1254       O  0.51107607  0.66230103  0.29554876    -0.62400
O1255       O  0.98097311  0.58378593  0.29362327    -0.74900
O1256       O  0.58099621  0.63163517  0.22221252    -0.73600
Cu1257     Cu  0.98373677  0.61821780  0.20352403     1.04600
Cu1258     Cu  0.53215465  0.60693256  0.25894641     1.04300
C1259       C  0.57560407  0.64263067  0.18375005     0.92700
C1260       C  0.94126104  0.58714964  0.28301150     0.91800
C1261       C  0.97877561  0.68181751  0.28273971     0.83900
C1262       C  0.03211363  0.54022194  0.18043695     0.90200
O1263       O  0.68116960  0.82128394  0.03577385    -0.73500
O1264       O  0.56097421  0.77963983  0.07522592    -0.74500
O1265       O  0.64529986  0.75990920  0.09220727    -0.63100
O1266       O  0.59848847  0.84320134  0.51903871    -0.71600
O1267       O  0.60145876  0.79301906  0.45808950    -0.71100
O1268       O  0.64983486  0.71051463  0.03030330    -0.62400
O1269       O  0.56659463  0.73173501  0.51227987    -0.74900
O1270       O  0.68364807  0.76979937  0.47610874    -0.73600
Cu1271     Cu  0.62110456  0.80286558  0.05797029     1.04600
Cu1272     Cu  0.62539831  0.74985017  0.49230621     1.04300
C1273       C  0.69807434  0.80407061  0.49606495     0.92700
C1274       C  0.54838521  0.74539077  0.55226024     0.91800
C1275       C  0.65134266  0.72156634  0.07344850     0.83900
C1276       C  0.59817071  0.83186847  0.47568173     0.90200
O1277       O  0.79287316  0.93731808  0.09606185    -0.73500
O1278       O  0.70987137  0.55762479  0.09626672    -0.74500
O1279       O  0.81041665  0.01117774  0.06173366    -0.63100
O1280       O  0.70198828  0.96353814  0.10685255    -0.71600
O1281       O  0.75970340  0.55837028  0.19812937    -0.71100
O1282       O  0.83280182  0.54345978  0.07733724    -0.62400
O1283       O  0.76011585  0.60118820  0.12514327    -0.74900
O1284       O  0.81585302  0.97414951  0.15886235    -0.73600
Cu1285     Cu  0.75606703  0.98653819  0.08245573     1.04600
Cu1286     Cu  0.79756249  0.55249535  0.13892071     1.04300
C1287       C  0.81629851  0.93971096  0.13037939     0.92700
C1288       C  0.72156671  0.59465848  0.11101389     0.91800
C1289       C  0.82942450  0.04224185  0.08342814     0.83900
C1290       C  0.69602613  0.97063610  0.15001080     0.90200
O1291       O  0.50168571  0.90128755  0.34984329    -0.73500
O1292       O  0.90874570  0.89088222  0.25663170    -0.74500
O1293       O  0.92000791  0.85905385  0.34208634    -0.63100
O1294       O  0.99049336  0.92589912  0.26569417    -0.71600
O1295       O  0.53206744  0.87150492  0.22822070    -0.71100
O1296       O  0.45751636  0.80599258  0.29737352    -0.62400
O1297       O  0.94925708  0.83876596  0.21535618    -0.74900
O1298       O  0.53908955  0.84521981  0.31182537    -0.73600
Cu1299     Cu  0.95360054  0.89621978  0.30497511     1.04600
Cu1300     Cu  0.49513193  0.83799235  0.26189061     1.04300
C1301       C  0.53541562  0.87632692  0.34511302     0.92700
C1302       C  0.91676176  0.86511028  0.21914042     0.91800
C1303       C  0.93033226  0.82026074  0.33154809     0.83900
C1304       C  0.02299721  0.91006904  0.23759094     0.90200
O1305       O  0.78390047  0.98650681  0.42542653    -0.73500
O1306       O  0.72657112  0.96837617  0.30985122    -0.74500
O1307       O  0.80061174  0.50904824  0.32990427    -0.63100
O1308       O  0.70852224  0.93542821  0.39048620    -0.71600
O1309       O  0.66067215  0.98809325  0.41437437    -0.71100
O1310       O  0.78182097  0.53905214  0.40174301    -0.62400
O1311       O  0.69016978  0.52489441  0.39123252    -0.74900
O1312       O  0.78668084  0.46179736  0.43227524    -0.73600
Cu1313     Cu  0.75605182  0.97475054  0.36703147     1.04600
Cu1314     Cu  0.73763640  0.49335743  0.41329908     1.04900
C1315       C  0.81858337  0.44485918  0.40425108     0.92700
C1316       C  0.68524849  0.51847921  0.34872337     0.91800
C1317       C  0.80513854  0.53837780  0.36339817     0.83900
C1318       C  0.66901683  0.94849509  0.40621411     0.90200
O1319       O  0.84094655  0.77357169  0.06337352    -0.73500
O1320       O  0.84418209  0.67326913  0.46145143    -0.74500
O1321       O  0.87196728  0.68895262  0.05333519    -0.63100
O1322       O  0.81625750  0.75905694  0.97267139    -0.71600
O1323       O  0.88220811  0.78104870  0.45090294    -0.71100
O1324       O  0.93579655  0.70286605  0.51771912    -0.62400
O1325       O  0.90670455  0.69391958  0.42939282    -0.74900
O1326       O  0.90914405  0.78862879  0.03973513    -0.73600
Cu1327     Cu  0.84086900  0.72273841  0.01336155     1.04600
Cu1328     Cu  0.91072278  0.74185132  0.48332434     1.04300
C1329       C  0.87445874  0.79681321  0.06790860     0.92700
C1330       C  0.87508007  0.66810766  0.42884351     0.91800
C1331       C  0.91423688  0.68632238  0.54828514     0.83900
C1332       C  0.84052754  0.78318702  0.45191329     0.90200
C1333       C  0.87657478  0.04490499  0.01618909    -0.20900
C1334       C  0.85322064  0.06883348  0.05483850    -0.07500
C1335       C  0.86718221  0.51364937  0.97018841     0.13400
C1336       C  0.87746803  0.48700859  0.42759924    -0.21000
C1337       C  0.86251547  0.44560168  0.42229540    -0.07500
C1338       C  0.85207241  0.02814921  0.47931299     0.13400
C1339       C  0.87325829  0.99450808  0.44242849    -0.24300
H1340       H  0.90863159  0.03124852  0.01967651     0.14700
H1341       H  0.88493266  0.50088415  0.39733141     0.14700
C1342       C  0.87070653  0.56008153  0.97459397    -0.24300
H1343       H  0.90885754  0.98952971  0.44679667     0.04900
H1344       H  0.87091358  0.00364633  0.40840675     0.08100
H1345       H  0.85686774  0.96442644  0.44366666     0.08100
H1346       H  0.89000042  0.57205604  0.00383666     0.08100
H1347       H  0.83718740  0.57521771  0.98053810     0.08100
H1348       H  0.88825707  0.56848252  0.94343043     0.04900
C1349       C  0.67016248  0.94007237  0.24263408    -0.20900
C1350       C  0.65553244  0.54563514  0.33003839    -0.07500
C1351       C  0.63517824  0.52452496  0.29270202     0.13400
C1352       C  0.65585399  0.52540549  0.24929173    -0.21000
C1353       C  0.65438291  0.96249545  0.17334002    -0.07500
C1354       C  0.65887824  0.92982733  0.19767476     0.13400
C1355       C  0.66112189  0.88526093  0.17370645    -0.24300
H1356       H  0.68037744  0.91547670  0.26028678     0.14700
H1357       H  0.64650903  0.50289345  0.22142345     0.14700
C1358       C  0.60074229  0.49275497  0.29891006    -0.24300
H1359       H  0.63624599  0.86712735  0.19097148     0.04900
H1360       H  0.69467645  0.87151597  0.17476751     0.08100
H1361       H  0.65401074  0.88299919  0.13734103     0.08100
H1362       H  0.59044580  0.49353414  0.33576619     0.08100
H1363       H  0.61416100  0.46095417  0.28389080     0.08100
H1364       H  0.57116525  0.49946145  0.28147515     0.04900
C1365       C  0.51669335  0.67512528  0.55265713    -0.20900
C1366       C  0.51549562  0.71815484  0.57175299    -0.07500
C1367       C  0.48314901  0.73191550  0.10853667     0.13400
C1368       C  0.94725648  0.70579628  0.11591918    -0.21000
C1369       C  0.94083487  0.67151966  0.58182500    -0.07500
C1370       C  0.98013458  0.65061975  0.56108749     0.13400
C1371       C  0.98035084  0.60537378  0.53995658    -0.24300
H1372       H  0.54453302  0.66123256  0.52958850     0.14700
H1373       H  0.91951271  0.71775330  0.14022917     0.14700
C1374       C  0.48474877  0.77355156  0.13830807    -0.24300
H1375       H  0.00738563  0.58841045  0.55276660     0.04900
H1376       H  0.98565724  0.60189318  0.50210966     0.08100
H1377       H  0.94855660  0.59117925  0.54926741     0.08100
H1378       H  0.48187977  0.79884427  0.11786392     0.08100
H1379       H  0.51602874  0.77611063  0.15537781     0.08100
H1380       H  0.45680913  0.77659052  0.16498708     0.04900
C1381       C  0.76406284  0.84943400  0.99376120    -0.20900
C1382       C  0.73371222  0.82310221  0.47081434    -0.07500
C1383       C  0.74328656  0.80847661  0.42310314     0.13400
C1384       C  0.78748497  0.80555660  0.40569923    -0.21000
C1385       C  0.81959884  0.81787952  0.43565400    -0.07500
C1386       C  0.80715062  0.85010297  0.97252973     0.13400
C1387       C  0.84164104  0.87797405  0.99349258    -0.24300
H1388       H  0.75589548  0.86577814  0.02841578     0.14700
H1389       H  0.79647893  0.78656862  0.37265216     0.14700
C1390       C  0.70875576  0.79345602  0.39101659    -0.24300
H1391       H  0.82681416  0.90144509  0.02221317     0.04900
H1392       H  0.85749037  0.89484069  0.96730011     0.08100
H1393       H  0.86747230  0.85935081  0.00595954     0.08100
H1394       H  0.67473313  0.80069573  0.40723916     0.08100
H1395       H  0.71315918  0.75928607  0.37890047     0.08100
H1396       H  0.71235221  0.80967710  0.36102427     0.04900
C1397       C  0.59372499  0.48946322  0.15160813    -0.20900
C1398       C  0.04870295  0.50069255  0.15177724    -0.07500
C1399       C  0.02007239  0.47057499  0.13095556     0.13400
C1400       C  0.04414039  0.94749655  0.17770011    -0.21000
C1401       C  0.05195310  0.93865466  0.22071908    -0.07500
C1402       C  0.56285082  0.97000292  0.25603855     0.13400
C1403       C  0.57359938  0.96092498  0.30200018    -0.24300
H1404       H  0.61765069  0.51343459  0.15927139     0.14700
H1405       H  0.03716361  0.92230916  0.15053968     0.14700
C1406       C  0.97316638  0.48137008  0.12319444    -0.24300
H1407       H  0.59774579  0.98318835  0.31734761     0.04900
H1408       H  0.58795636  0.92883508  0.29809893     0.08100
H1409       H  0.54323899  0.96455398  0.32597544     0.08100
H1410       H  0.97315111  0.50519031  0.10055929     0.08100
H1411       H  0.95412739  0.49365743  0.15639787     0.08100
H1412       H  0.95604628  0.45365050  0.10642993     0.04900
C1413       C  0.47136306  0.73533331  0.35366470    -0.20900
C1414       C  0.95225102  0.71373948  0.31549473    -0.07500
C1415       C  0.90729726  0.72361564  0.30978625     0.13400
C1416       C  0.88810125  0.76107825  0.33449058    -0.21000
C1417       C  0.91506123  0.78955297  0.35897241    -0.07500
C1418       C  0.45111825  0.77261332  0.37755701     0.13400
C1419       C  0.47458707  0.79837585  0.41451993    -0.24300
H1420       H  0.50347210  0.72556849  0.36226011     0.14700
H1421       H  0.85748033  0.77243786  0.32417069     0.14700
C1422       C  0.87985341  0.69661659  0.27700911    -0.24300
H1423       H  0.47638131  0.78137061  0.44366576     0.04900
H1424       H  0.45710503  0.82895623  0.42712590     0.08100
H1425       H  0.50864121  0.80388778  0.40083090     0.08100
H1426       H  0.88038830  0.66413487  0.28366868     0.08100
H1427       H  0.89226578  0.69728079  0.24104675     0.08100
H1428       H  0.84469521  0.70774444  0.28116910     0.04900
C1429       C  0.83907729  0.57033289  0.85826319     0.79600
N1430       N  0.84054987  0.60425815  0.89191848    -0.78700
C1431       C  0.87374444  0.63187434  0.89084065     0.82100
N1432       N  0.90597616  0.62505976  0.85551757    -0.78600
C1433       C  0.90487948  0.59174163  0.82078021     0.82200
N1434       N  0.87118270  0.56435151  0.82218766    -0.80300
C1435       C  0.89026146  0.86632254  0.67880812     0.79600
N1436       N  0.89381098  0.83329695  0.64343430    -0.78700
C1437       C  0.87212883  0.83377870  0.60528019     0.82100
N1438       N  0.84683023  0.86801421  0.60228974    -0.78600
C1439       C  0.84360469  0.90214486  0.63632978     0.82200
N1440       N  0.86534670  0.90102216  0.67486172    -0.80300
C1441       C  0.63185647  0.91769435  0.91056188     0.79600
N1442       N  0.62996283  0.89240441  0.94324761    -0.78700
C1443       C  0.59754693  0.86318490  0.94450484     0.82100
N1444       N  0.56855059  0.85818644  0.91181783    -0.78600
C1445       C  0.56924754  0.88279727  0.87939177     0.82200
N1446       N  0.60079736  0.91269929  0.87908416    -0.80300
C1447       C  0.65343347  0.68903167  0.60223407     0.79600
N1448       N  0.68798099  0.66062685  0.59556333    -0.78700
C1449       C  0.68682567  0.62809545  0.61893045     0.82100
N1450       N  0.65067241  0.62371239  0.64796042    -0.78600
C1451       C  0.61559588  0.65119204  0.65430942     0.82200
N1452       N  0.61697759  0.68370030  0.63089091    -0.80300
O1453       O  0.53678559  0.64236108  0.66940501    -0.73500
O1454       O  0.93416310  0.59493727  0.74326851    -0.74500
O1455       O  0.96755603  0.67260354  0.74205776    -0.63100
O1456       O  0.00181976  0.56202737  0.66766663    -0.71600
O1457       O  0.54833718  0.55196618  0.71873946    -0.71100
O1458       O  0.51107707  0.66229683  0.79554981    -0.62400
O1459       O  0.98097649  0.58378640  0.79362071    -0.74900
O1460       O  0.58099604  0.63163289  0.72221146    -0.73600
Cu1461     Cu  0.98374582  0.61822630  0.70352644     1.04600
Cu1462     Cu  0.53215419  0.60692923  0.75894436     1.04300
C1463       C  0.57560376  0.64263042  0.68374996     0.92700
C1464       C  0.94126525  0.58715187  0.78300703     0.91800
C1465       C  0.97878770  0.68182049  0.78274801     0.83900
C1466       C  0.03211450  0.54022677  0.68043625     0.90200
O1467       O  0.68116355  0.82127877  0.53576437    -0.73500
O1468       O  0.56097059  0.77963978  0.57523102    -0.74500
O1469       O  0.64529797  0.75990526  0.59219942    -0.63100
O1470       O  0.59849670  0.84320084  0.01903523    -0.71600
O1471       O  0.60147328  0.79301549  0.95808876    -0.71100
O1472       O  0.64982264  0.71051101  0.53029536    -0.62400
O1473       O  0.56660751  0.73173145  0.01227786    -0.74900
O1474       O  0.68366161  0.76980290  0.97611937    -0.73600
Cu1475     Cu  0.62109985  0.80286343  0.55796786     1.04600
Cu1476     Cu  0.62541201  0.74985025  0.99231050     1.04300
C1477       C  0.69808362  0.80407604  0.99607562     0.92700
C1478       C  0.54839125  0.74538999  0.05225462     0.91800
C1479       C  0.65133607  0.72156220  0.57344006     0.83900
C1480       C  0.59818234  0.83186540  0.97567816     0.90200
O1481       O  0.79288986  0.93732428  0.59605980    -0.73500
O1482       O  0.70987325  0.55763003  0.59627090    -0.74500
O1483       O  0.81042653  0.01118783  0.56173456    -0.63100
O1484       O  0.70200130  0.96353464  0.60684510    -0.71600
O1485       O  0.75970002  0.55837047  0.69813373    -0.71100
O1486       O  0.83280442  0.54346302  0.57734506    -0.62400
O1487       O  0.76011748  0.60119218  0.62515033    -0.74900
O1488       O  0.81586360  0.97415586  0.65886312    -0.73600
Cu1489     Cu  0.75607907  0.98654102  0.58245257     1.04600
Cu1490     Cu  0.79756255  0.55249728  0.63892719     1.04300
C1491       C  0.81631289  0.93971762  0.63037916     0.92700
C1492       C  0.72156877  0.59466335  0.61101933     0.91800
C1493       C  0.82942647  0.04225620  0.58343103     0.83900
C1494       C  0.69603557  0.97063121  0.65000323     0.90200
O1495       O  0.50169022  0.90128202  0.84984292    -0.73500
O1496       O  0.90874463  0.89087559  0.75663845    -0.74500
O1497       O  0.92001370  0.85905234  0.84209752    -0.63100
O1498       O  0.99049035  0.92589606  0.76569450    -0.71600
O1499       O  0.53206354  0.87150221  0.72822032    -0.71100
O1500       O  0.45751353  0.80598862  0.79737469    -0.62400
O1501       O  0.94925709  0.83876116  0.71536010    -0.74900
O1502       O  0.53908925  0.84521239  0.81182287    -0.73600
Cu1503     Cu  0.95360140  0.89621770  0.80498044     1.04600
Cu1504     Cu  0.49512873  0.83798880  0.76189096     1.04300
C1505       C  0.53541887  0.87631956  0.84511043     0.92700
C1506       C  0.91676225  0.86510581  0.71914560     0.91800
C1507       C  0.93033881  0.82025926  0.83156035     0.83900
C1508       C  0.02299402  0.91006542  0.73759126     0.90200
O1509       O  0.78390826  0.98649555  0.92540992    -0.73500
O1510       O  0.72657978  0.96837891  0.80983534    -0.74500
O1511       O  0.80061069  0.50904918  0.82989173    -0.63100
O1512       O  0.70853149  0.93542062  0.89046417    -0.71600
O1513       O  0.66068165  0.98808418  0.91436171    -0.71100
O1514       O  0.78181924  0.53905379  0.90173006    -0.62400
O1515       O  0.69016668  0.52489090  0.89122283    -0.74900
O1516       O  0.78668385  0.46180133  0.93226388    -0.73600
Cu1517     Cu  0.75605988  0.97474705  0.86701511     1.04600
Cu1518     Cu  0.73763706  0.49335799  0.91328832     1.04900
C1519       C  0.81858589  0.44486274  0.90423950     0.92700
C1520       C  0.68524257  0.51847469  0.84871431     0.91800
C1521       C  0.80513770  0.53837875  0.86338566     0.83900
C1522       C  0.66902687  0.94848612  0.90619703     0.90200
O1523       O  0.84095574  0.77357647  0.56337993    -0.73500
O1524       O  0.84417837  0.67326816  0.96144088    -0.74500
O1525       O  0.87197307  0.68895921  0.55334637    -0.63100
O1526       O  0.81625913  0.75905685  0.47267952    -0.71600
O1527       O  0.88220862  0.78105324  0.95090892    -0.71100
O1528       O  0.93579214  0.70284945  0.01770338    -0.62400
O1529       O  0.90669909  0.69392237  0.92938260    -0.74900
O1530       O  0.90914785  0.78863973  0.53972944    -0.73600
Cu1531     Cu  0.84087419  0.72274182  0.51337082     1.04600
Cu1532     Cu  0.91071940  0.74184643  0.98332096     1.04300
C1533       C  0.87446660  0.79682057  0.56790853     0.92700
C1534       C  0.87507605  0.66810889  0.92883299     0.91800
C1535       C  0.91423112  0.68630953  0.04827127     0.83900
C1536       C  0.84052846  0.78319151  0.95191384     0.90200
C1537       C  0.87656934  0.04493423  0.51619063    -0.20900
C1538       C  0.85321387  0.06885572  0.55484371    -0.07500
C1539       C  0.86718106  0.51364932  0.47019181     0.13400
C1540       C  0.87746939  0.48701247  0.92759326    -0.21000
C1541       C  0.86251813  0.44560486  0.92228387    -0.07500
C1542       C  0.85207882  0.02812256  0.97930971     0.13400
C1543       C  0.87326209  0.99447719  0.94242841    -0.24300
H1544       H  0.90862981  0.03128291  0.51967391     0.14700
H1545       H  0.88493631  0.50089116  0.89732797     0.14700
C1546       C  0.87069729  0.56008133  0.47458936    -0.24300
H1547       H  0.90885886  0.98949121  0.94680185     0.04900
H1548       H  0.87092579  0.00361580  0.90840561     0.08100
H1549       H  0.85686313  0.96439940  0.94366458     0.08100
H1550       H  0.88997929  0.57206521  0.50383807     0.08100
H1551       H  0.83717517  0.57521150  0.48051952     0.08100
H1552       H  0.88825666  0.56847869  0.44342850     0.04900
C1553       C  0.67016568  0.94007203  0.74262526    -0.20900
C1554       C  0.65552049  0.54562800  0.83003255    -0.07500
C1555       C  0.63516934  0.52451800  0.79269389     0.13400
C1556       C  0.65584789  0.52540075  0.74928533    -0.21000
C1557       C  0.65438910  0.96249148  0.67332864    -0.07500
C1558       C  0.65888057  0.92982502  0.69766638     0.13400
C1559       C  0.66111751  0.88525745  0.67370221    -0.24300
H1560       H  0.68037918  0.91547730  0.76027998     0.14700
H1561       H  0.64650508  0.50288957  0.72141464     0.14700
C1562       C  0.60073084  0.49274954  0.79889811    -0.24300
H1563       H  0.63623897  0.86712864  0.69097016     0.04900
H1564       H  0.69467022  0.87150856  0.67476361     0.08100
H1565       H  0.65400566  0.88299404  0.63733681     0.08100
H1566       H  0.59043332  0.49352632  0.83575359     0.08100
H1567       H  0.61414737  0.46094862  0.78387620     0.08100
H1568       H  0.57115483  0.49945992  0.78146361     0.04900
C1569       C  0.51669744  0.67512547  0.05265519    -0.20900
C1570       C  0.51549635  0.71815666  0.07174416    -0.07500
C1571       C  0.48315663  0.73190834  0.60855503     0.13400
C1572       C  0.94727961  0.70578037  0.61593657    -0.21000
C1573       C  0.94082720  0.67152082  0.08182123    -0.07500
C1574       C  0.98013542  0.65062475  0.06110122     0.13400
C1575       C  0.98036999  0.60537032  0.04000027    -0.24300
H1576       H  0.54454089  0.66123114  0.02959333     0.14700
H1577       H  0.91954647  0.71773365  0.64026253     0.14700
C1578       C  0.48477378  0.77353230  0.63834701    -0.24300
H1579       H  0.00739787  0.58842461  0.05284283     0.04900
H1580       H  0.98569983  0.60186719  0.00215303     0.08100
H1581       H  0.94857349  0.59117437  0.04930099     0.08100
H1582       H  0.48189525  0.79883896  0.61792313     0.08100
H1583       H  0.51606446  0.77607695  0.65539810     0.08100
H1584       H  0.45684858  0.77656100  0.66504198     0.04900
C1585       C  0.76405458  0.84942708  0.49375165    -0.20900
C1586       C  0.73371880  0.82311058  0.97082458    -0.07500
C1587       C  0.74328997  0.80848758  0.92311221     0.13400
C1588       C  0.78748713  0.80556994  0.90570467    -0.21000
C1589       C  0.81960306  0.81788797  0.93565827    -0.07500
C1590       C  0.80714336  0.85009601  0.47252291     0.13400
C1591       C  0.84163132  0.87796972  0.49348660    -0.24300
H1592       H  0.75588474  0.86577330  0.52840494     0.14700
H1593       H  0.79647879  0.78658530  0.87265516     0.14700
C1594       C  0.70875793  0.79346519  0.89102787    -0.24300
H1595       H  0.82680220  0.90143894  0.52220751     0.04900
H1596       H  0.85747859  0.89483864  0.46729494     0.08100
H1597       H  0.86746434  0.85934843  0.50595353     0.08100
H1598       H  0.67473605  0.80070248  0.90725261     0.08100
H1599       H  0.71316333  0.75929542  0.87891095     0.08100
H1600       H  0.71235061  0.80968677  0.86103586     0.04900
C1601       C  0.59372018  0.48946043  0.65160172    -0.20900
C1602       C  0.04869690  0.50069495  0.65177826    -0.07500
C1603       C  0.02005958  0.47057675  0.63097051     0.13400
C1604       C  0.04413148  0.94749219  0.67769819    -0.21000
C1605       C  0.05194853  0.93865040  0.72071606    -0.07500
C1606       C  0.56285510  0.96999667  0.75603548     0.13400
C1607       C  0.57360682  0.96091319  0.80199383    -0.24300
H1608       H  0.61764660  0.51343194  0.65926090     0.14700
H1609       H  0.03715028  0.92230484  0.65053957     0.14700
C1610       C  0.97314790  0.48137163  0.62322943    -0.24300
H1611       H  0.59775788  0.98317199  0.81734011     0.04900
H1612       H  0.58795940  0.92882118  0.79808809     0.08100
H1613       H  0.54324866  0.96454446  0.82597225     0.08100
H1614       H  0.97312125  0.50519065  0.60059353     0.08100
H1615       H  0.95412153  0.49366060  0.65643965     0.08100
H1616       H  0.95602231  0.45365178  0.60647417     0.04900
C1617       C  0.47136704  0.73533048  0.85366759    -0.20900
C1618       C  0.95226436  0.71374117  0.81550584    -0.07500
C1619       C  0.90730910  0.72361563  0.80980156     0.13400
C1620       C  0.88811183  0.76107594  0.83451025    -0.21000
C1621       C  0.91507267  0.78955230  0.85898839    -0.07500
C1622       C  0.45112242  0.77261041  0.87756070     0.13400
C1623       C  0.47459178  0.79837286  0.91452312    -0.24300
H1624       H  0.50347669  0.72556603  0.86226138     0.14700
H1625       H  0.85748859  0.77243391  0.82419440     0.14700
C1626       C  0.87986509  0.69661841  0.77702301    -0.24300
H1627       H  0.47638727  0.78136722  0.94366846     0.04900
H1628       H  0.45710928  0.82895287  0.92713005     0.08100
H1629       H  0.50864538  0.80388549  0.90083310     0.08100
H1630       H  0.88040219  0.66413542  0.78367773     0.08100
H1631       H  0.89227566  0.69728696  0.74106110     0.08100
H1632       H  0.84470628  0.70774463  0.78118590     0.04900
loop_ 
_geom_bond_atom_site_label_1 
_geom_bond_atom_site_label_2 
_geom_bond_distance 
_geom_bond_site_symmetry_2 
_ccdc_geom_bond_type 
C1            N2   1.375       .  A
C1            N6   1.381       .  A
C1           C93   1.513       .  S
N2            C3   1.366       .  A
C3            N4   1.348       .  A
C3          C106   1.488       .  S
N4            C5   1.351       .  A
C5            N6   1.378       .  A
C5           C36   1.493       .  S
C7            N8   1.361       .  A
C7           N12   1.367       .  A
C7           C78   1.485       .  S
N8            C9   1.357       .  A
C9           N10   1.360       .  A
C9          C105   1.483       .  S
N10          C11   1.368       .  A
C11          N12   1.367       .  A
C11          C63   1.488       .  S
C13          N14   1.366       .  A
C13          N18   1.358       .  A
C13          C94   1.494       .  S
N14          C15   1.375       .  A
C15          N16   1.374       .  A
C15          C52   1.513       .  S
N16          C17   1.375       .  A
C17          N18   1.358       .  A
C17          C77   1.495       .  S
C19          N20   1.371       .  A
C19          N24   1.367       .  A
C19          C51   1.492       .  S
N20          C21   1.372       .  A
C21          N22   1.380       .  A
C21          C64   1.524       .  S
N22          C23   1.379       .  A
C23          N24   1.359       .  A
C23          C35   1.519       .  S
O25          C35   1.291       .  A
O25        Cu849   2.093   1_455  S
O26          C36   1.281       .  A
O26         Cu33   2.063       .  S
O27          C37   1.281       .  A
O27         Cu33   2.028       .  S
O28          C38   1.271       .  A
O28         Cu33   1.965       .  S
O29         C854   1.266       .  A
O29         Cu34   1.880       .  S
O30         C853   1.273       .  A
O30         Cu34   1.952   1_655  S
O31          C36   1.283       .  A
O31        Cu850   2.032       .  S
O32          C35   1.279       .  A
O32         Cu34   2.038       .  S
Cu33        O841   2.093       .  S
Cu33       Cu850   2.365       .  S
Cu34        O847   2.032   1_455  S
Cu34       Cu849   2.365   1_455  S
C37         C190   1.488       .  S
C37         O846   1.273       .  A
C38         C174   1.434       .  S
C38         O845   1.266       .  A
O39         C253   1.278       .  A
O39         Cu47   1.972   1_556  S
O40         C254   1.277       .  A
O40         Cu47   2.001       .  S
O41          C51   1.276       .  A
O41         Cu47   2.013       .  S
O42          C52   1.280       .  A
O42        Cu251   2.034       .  S
O43          C52   1.289       .  A
O43         Cu48   2.091       .  S
O44          C51   1.286   1_556  A
O44        Cu252   2.075       .  S
O45          C50   1.276       .  A
O45         Cu48   1.975       .  S
O46          C49   1.270       .  A
O46         Cu48   1.979       .  S
Cu47        O246   2.034   1_554  S
Cu47       Cu252   2.368   1_554  S
Cu48        O248   2.075       .  S
Cu48       Cu251   2.368       .  S
C49         C158   1.453       .  S
C49         O243   1.278       .  A
C50         C142   1.479       .  S
C50         O244   1.277       .  A
O53          C63   1.277       .  A
O53         Cu61   2.013       .  S
O54          C64   1.288       .  A
O54        Cu469   2.090   1_545  S
O55          C65   1.277       .  A
O55         Cu61   1.979       .  S
O56          C66   1.275       .  A
O56         Cu61   1.983       .  S
O57         C474   1.280       .  A
O57         Cu62   1.936   1_565  S
O58         C473   1.273       .  A
O58         Cu62   2.000       .  S
O59          C64   1.284       .  A
O59         Cu62   2.080       .  S
O60          C63   1.284       .  A
O60        Cu470   2.056       .  S
Cu61        O462   1.997       .  S
Cu61       Cu470   2.369       .  S
Cu62        O468   2.065   1_545  S
Cu62       Cu469   2.352   1_545  S
C65         C110   1.467       .  S
C65         O466   1.276       .  A
C66         C129   1.479       .  S
C66         O465   1.276       .  A
O67          C77   1.282       .  A
O67        Cu891   2.043   1_455  S
O68          C78   1.279       .  A
O68         Cu75   2.044       .  S
O69          C79   1.274       .  A
O69         Cu75   2.017       .  S
O70          C80   1.284       .  A
O70         Cu75   2.011       .  S
O71         C896   1.268       .  A
O71         Cu76   1.977       .  S
O72         C895   1.273       .  A
O72         Cu76   1.923   1_655  S
O73          C78   1.277       .  A
O73        Cu892   2.029       .  S
O74          C77   1.281       .  A
O74         Cu76   2.054       .  S
Cu75        O883   2.043       .  S
Cu75       Cu892   2.366       .  S
Cu76        O889   2.029   1_455  S
Cu76       Cu891   2.366   1_455  S
C79         C193   1.462       .  S
C79         O888   1.273       .  A
C80         C177   1.465       .  S
C80         O887   1.268       .  A
O81         C499   1.278       .  A
O81         Cu89   2.025       .  S
O82         C500   1.283       .  A
O82         Cu89   1.987       .  S
O83          C93   1.285       .  A
O83        Cu497   2.077   1_545  S
O84          C94   1.280       .  A
O84         Cu89   2.029       .  S
O85          C94   1.283       .  A
O85        Cu498   2.063       .  S
O86          C93   1.285       .  A
O86         Cu90   2.059       .  S
O87          C92   1.272   1_545  A
O87         Cu90   1.975       .  S
O88          C91   1.277       .  A
O88         Cu90   1.978       .  S
Cu89        O491   2.009       .  S
Cu89       Cu498   2.370       .  S
Cu90        O493   2.086   1_545  S
Cu90       Cu497   2.363   1_545  S
C91         C113   1.483       .  S
C91         O489   1.274   1_545  A
C92         C126   1.457       .  S
C92         O490   1.275       .  A
O95         C105   1.278       .  A
O95        Cu103   2.035       .  S
O96         C106   1.279       .  A
O96        Cu307   2.045       .  S
O97         C311   1.277       .  A
O97        Cu103   2.037       .  S
O98         C312   1.286       .  A
O98        Cu103   2.012   1_556  S
O99         C108   1.266       .  A
O99        Cu104   1.972       .  S
O100        C107   1.272       .  A
O100       Cu104   1.935       .  S
O101        C106   1.283       .  A
O101       Cu104   2.021       .  S
O102        C105   1.281       .  A
O102       Cu308   2.032   1_554  S
Cu103       O300   2.045   1_554  S
Cu103      Cu308   2.371   1_554  S
Cu104       O306   2.032       .  S
Cu104      Cu307   2.371       .  S
C107        C145   1.471       .  S
C107        O301   1.277       .  A
C108        C161   1.471       .  S
C108        O302   1.286       .  A
C109        C110   1.403       .  A
C109        C318   1.396   1_554  A
C109        H116   1.081       .  S
C110        C519   1.406   1_554  A
C111        C518   1.406       .  A
C111        C316   1.405       .  A
C111        C118   1.499       .  S
C112        C113   1.414       .  A
C112        C315   1.405       .  A
C112        H117   1.084       .  S
C113        C522   1.430       .  A
C114        C313   1.396       .  A
C114        C521   1.404       .  A
C114        C115   1.492       .  S
C115        H119   1.110       .  S
C115        H120   1.109       .  S
C115        H121   1.104       .  S
C118        H122   1.111       .  S
C118        H123   1.110       .  S
C118        H124   1.108       .  S
C125        C130   1.406       .  A
C125        C534   1.400       .  A
C125        H132   1.084       .  S
C126        C127   1.419   1_565  A
C126        C533   1.411       .  A
C127        C128   1.406       .  A
C127        C134   1.507       .  S
C128        C537   1.401   1_545  A
C128        H133   1.085       .  S
C129        C130   1.422       .  A
C129        C536   1.409       .  A
C130        C131   1.507       .  S
C131        H135   1.111       .  S
C131        H136   1.110       .  S
C131        H137   1.109       .  S
C134        H138   1.110       .  S
C134        H139   1.109       .  S
C134        H140   1.111       .  S
C141        C142   1.411       .  A
C141        C962   1.402   1_455  A
C141        H148   1.084       .  S
C142        C347   1.412   1_455  A
C143        C346   1.412   1_655  A
C143        C960   1.412       .  A
C143        C150   1.494   1_655  S
C144        C959   1.412       .  A
C144        C349   1.407       .  A
C144        H149   1.082       .  S
C145        C146   1.405       .  A
C145        C348   1.407       .  A
C146        C957   1.402       .  A
C146        C147   1.493       .  S
C147        H151   1.110       .  S
C147        H152   1.111       .  S
C147        H153   1.107       .  S
C150        H154   1.110       .  S
C150        H155   1.110       .  S
C150        H156   1.103       .  S
C157        C162   1.388       .  A
C157        C362   1.401       .  A
C157        H164   1.081       .  S
C158        C159   1.408       .  A
C158        C361   1.401       .  A
C159        C160   1.411       .  A
C159        C166   1.498       .  S
C160        C161   1.409       .  A
C160        H165   1.084       .  S
C161        C366   1.394       .  A
C162        C365   1.394       .  A
C162        C163   1.485       .  S
C163        H167   1.106       .  S
C163        H168   1.105       .  S
C163        H169   1.110       .  S
C166        H170   1.110       .  S
C166        H171   1.110       .  S
C166        H172   1.108       .  S
C173        C990   1.403       .  A
C173        C586   1.364   1_545  A
C173        H180   1.085       .  S
C174        C175   1.412   1_545  A
C174        C989   1.403       .  A
C175        C584   1.395       .  A
C175        C182   1.506       .  S
C176        C177   1.404       .  A
C176        C583   1.406       .  A
C176        H181   1.084       .  S
C177        C994   1.395       .  A
C178        C581   1.403       .  A
C178        C993   1.395       .  A
C178        C179   1.501       .  S
C179        H183   1.110       .  S
C179        H184   1.111       .  S
C179        H185   1.105       .  S
C182        H186   1.111   1_565  S
C182        H187   1.109   1_565  S
C182        H188   1.111       .  S
C189        C194   1.402       .  A
C189       C1006   1.416       .  A
C189        H196   1.084       .  S
C190        C191   1.421       .  A
C190       C1005   1.416       .  A
C191        C192   1.413       .  A
C191        C198   1.504       .  S
C192        C193   1.407       .  A
C192        H197   1.083       .  S
C193       C1010   1.403       .  A
C194       C1009   1.403       .  A
C194        C195   1.504       .  S
C195        H199   1.109       .  S
C195        H200   1.110       .  S
C195        H201   1.109       .  S
C198        H202   1.110       .  S
C198        H203   1.106       .  S
C198        H204   1.111       .  S
C205        N206   1.375       .  A
C205        N210   1.381       .  A
C205        C297   1.513       .  S
N206        C207   1.366       .  A
C207        N208   1.348       .  A
C207        C310   1.488       .  S
N208        C209   1.351       .  A
C209        N210   1.378       .  A
C209        C240   1.493       .  S
C211        N212   1.361       .  A
C211        N216   1.367       .  A
C211        C282   1.485       .  S
N212        C213   1.357       .  A
C213        N214   1.360       .  A
C213        C309   1.483       .  S
N214        C215   1.368       .  A
C215        N216   1.367       .  A
C215        C267   1.488       .  S
C217        N218   1.366       .  A
C217        N222   1.358       .  A
C217        C298   1.494       .  S
N218        C219   1.375       .  A
C219        N220   1.374       .  A
C219        C256   1.513       .  S
N220        C221   1.375       .  A
C221        N222   1.358       .  A
C221        C281   1.495       .  S
C223        N224   1.371       .  A
C223        N228   1.367       .  A
C223        C255   1.492       .  S
N224        C225   1.372       .  A
C225        N226   1.380       .  A
C225        C268   1.524       .  S
N226        C227   1.379       .  A
C227        N228   1.359       .  A
C227        C239   1.519       .  S
O229        C239   1.291       .  A
O229      Cu1053   2.093   1_455  S
O230        C240   1.281       .  A
O230       Cu237   2.063       .  S
O231        C241   1.281       .  A
O231       Cu237   2.028       .  S
O232        C242   1.271       .  A
O232       Cu237   1.965       .  S
O233       C1058   1.266       .  A
O233       Cu238   1.880       .  S
O234       C1057   1.273       .  A
O234       Cu238   1.952   1_655  S
O235        C240   1.283       .  A
O235      Cu1054   2.032       .  S
O236        C239   1.279       .  A
O236       Cu238   2.038       .  S
Cu237      O1045   2.093       .  S
Cu237     Cu1054   2.365       .  S
Cu238      O1051   2.032   1_455  S
Cu238     Cu1053   2.365   1_455  S
C241        C394   1.488       .  S
C241       O1050   1.273       .  A
C242        C378   1.434       .  S
C242       O1049   1.266       .  A
O243       Cu251   1.972       .  S
O244       Cu251   2.001       .  S
O245        C255   1.276       .  A
O245       Cu251   2.013       .  S
O246        C256   1.280       .  A
O247        C256   1.289       .  A
O247       Cu252   2.091       .  S
O248        C255   1.286       .  A
O249        C254   1.276   1_556  A
O249       Cu252   1.975       .  S
O250        C253   1.270       .  A
O250       Cu252   1.979       .  S
C253        C362   1.453       .  S
C254        C346   1.479       .  S
O257        C267   1.277       .  A
O257       Cu265   2.013       .  S
O258        C268   1.288       .  A
O258       Cu673   2.090   1_545  S
O259        C269   1.277       .  A
O259       Cu265   1.979       .  S
O260        C270   1.275       .  A
O260       Cu265   1.983       .  S
O261        C678   1.280       .  A
O261       Cu266   1.936   1_565  S
O262        C677   1.273       .  A
O262       Cu266   2.000       .  S
O263        C268   1.284       .  A
O263       Cu266   2.080       .  S
O264        C267   1.284       .  A
O264       Cu674   2.056       .  S
Cu265       O666   1.997       .  S
Cu265      Cu674   2.369       .  S
Cu266       O672   2.065   1_545  S
Cu266      Cu673   2.352   1_545  S
C269        C314   1.467       .  S
C269        O670   1.276       .  A
C270        C333   1.479       .  S
C270        O669   1.276       .  A
O271        C281   1.282       .  A
O271      Cu1095   2.043   1_455  S
O272        C282   1.279       .  A
O272       Cu279   2.044       .  S
O273        C283   1.274       .  A
O273       Cu279   2.017       .  S
O274        C284   1.284       .  A
O274       Cu279   2.011       .  S
O275       C1100   1.268       .  A
O275       Cu280   1.977       .  S
O276       C1099   1.273       .  A
O276       Cu280   1.923   1_655  S
O277        C282   1.277       .  A
O277      Cu1096   2.029       .  S
O278        C281   1.281       .  A
O278       Cu280   2.054       .  S
Cu279      O1087   2.043       .  S
Cu279     Cu1096   2.366       .  S
Cu280      O1093   2.029   1_455  S
Cu280     Cu1095   2.366   1_455  S
C283        C397   1.462       .  S
C283       O1092   1.273       .  A
C284        C381   1.465       .  S
C284       O1091   1.268       .  A
O285        C703   1.278       .  A
O285       Cu293   2.025       .  S
O286        C704   1.283       .  A
O286       Cu293   1.987       .  S
O287        C297   1.285       .  A
O287       Cu701   2.077   1_545  S
O288        C298   1.280       .  A
O288       Cu293   2.029       .  S
O289        C298   1.283       .  A
O289       Cu702   2.063       .  S
O290        C297   1.285       .  A
O290       Cu294   2.059       .  S
O291        C296   1.272   1_545  A
O291       Cu294   1.975       .  S
O292        C295   1.277       .  A
O292       Cu294   1.978       .  S
Cu293       O695   2.009       .  S
Cu293      Cu702   2.370       .  S
Cu294       O697   2.086   1_545  S
Cu294      Cu701   2.363   1_545  S
C295        C317   1.483       .  S
C295        O693   1.274   1_545  A
C296        C330   1.457       .  S
C296        O694   1.275       .  A
O299        C309   1.278       .  A
O299       Cu307   2.035       .  S
O300        C310   1.279       .  A
O301       Cu307   2.037       .  S
O302       Cu307   2.012       .  S
O303        C312   1.266       .  A
O303       Cu308   1.972       .  S
O304        C311   1.272       .  A
O304       Cu308   1.935   1_554  S
O305        C310   1.283       .  A
O305       Cu308   2.021       .  S
O306        C309   1.281       .  A
C311        C349   1.471       .  S
C312        C365   1.471       .  S
C313        C314   1.403       .  A
C313        H320   1.081       .  S
C314        C723   1.406       .  A
C315        C722   1.406       .  A
C315        C322   1.499       .  S
C316        C317   1.414   1_554  A
C316        H321   1.084       .  S
C317        C726   1.430       .  A
C318        C725   1.404       .  A
C318        C319   1.492       .  S
C319        H323   1.110       .  S
C319        H324   1.109       .  S
C319        H325   1.104       .  S
C322        H326   1.111       .  S
C322        H327   1.110       .  S
C322        H328   1.108       .  S
C329        C738   1.400       .  A
C329        C334   1.406       .  A
C329        H336   1.084       .  S
C330        C737   1.411       .  A
C330        C331   1.419   1_565  A
C331        C332   1.406       .  A
C331        C338   1.507       .  S
C332        C741   1.401   1_545  A
C332        H337   1.085       .  S
C333        C740   1.409       .  A
C333        C334   1.422       .  A
C334        C335   1.507       .  S
C335        H339   1.111       .  S
C335        H340   1.110       .  S
C335        H341   1.109       .  S
C338        H342   1.110       .  S
C338        H343   1.109       .  S
C338        H344   1.111       .  S
C345        C346   1.411       .  A
C345       C1166   1.402   1_455  A
C345        H352   1.084       .  S
C347       C1164   1.412       .  A
C347        C354   1.494   1_655  S
C348       C1163   1.412       .  A
C348        H353   1.082       .  S
C349        C350   1.405       .  A
C350       C1161   1.402       .  A
C350        C351   1.493       .  S
C351        H355   1.110       .  S
C351        H356   1.111       .  S
C351        H357   1.107       .  S
C354        H358   1.110       .  S
C354        H359   1.110       .  S
C354        H360   1.103       .  S
C361        C366   1.388       .  A
C361        H368   1.081       .  S
C362        C363   1.408       .  A
C363        C364   1.411       .  A
C363        C370   1.498       .  S
C364        C365   1.409       .  A
C364        H369   1.084       .  S
C366        C367   1.485       .  S
C367        H371   1.106       .  S
C367        H372   1.105       .  S
C367        H373   1.110       .  S
C370        H374   1.110       .  S
C370        H375   1.110       .  S
C370        H376   1.108       .  S
C377       C1194   1.403       .  A
C377        C790   1.364   1_545  A
C377        H384   1.085       .  S
C378       C1193   1.403       .  A
C378        C379   1.412   1_545  A
C379        C788   1.395       .  A
C379        C386   1.506       .  S
C380        C787   1.406       .  A
C380        C381   1.404       .  A
C380        H385   1.084       .  S
C381       C1198   1.395       .  A
C382        C785   1.403       .  A
C382       C1197   1.395       .  A
C382        C383   1.501       .  S
C383        H387   1.110       .  S
C383        H388   1.111       .  S
C383        H389   1.105       .  S
C386        H390   1.111   1_565  S
C386        H391   1.109   1_565  S
C386        H392   1.111       .  S
C393       C1210   1.416       .  A
C393        C398   1.402       .  A
C393        H400   1.084       .  S
C394       C1209   1.416       .  A
C394        C395   1.422       .  A
C395        C396   1.413       .  A
C395        C402   1.504       .  S
C396        C397   1.407       .  A
C396        H401   1.083       .  S
C397       C1214   1.403       .  A
C398       C1213   1.403       .  A
C398        C399   1.504       .  S
C399        H403   1.109       .  S
C399        H404   1.110       .  S
C399        H405   1.109       .  S
C402        H406   1.110       .  S
C402        H407   1.106       .  S
C402        H408   1.111       .  S
C409        N410   1.361       .  A
C409        N414   1.374       .  A
C409        C501   1.490       .  S
N410        C411   1.360       .  A
C411        N412   1.361       .  A
C411        C514   1.490       .  S
N412        C413   1.366       .  A
C413        N414   1.368       .  A
C413        C444   1.495       .  S
C415        N416   1.365       .  A
C415        N420   1.376       .  A
C415        C486   1.505       .  S
N416        C417   1.361       .  A
C417        N418   1.363       .  A
C417        C513   1.488       .  S
N418        C419   1.365       .  A
C419        N420   1.375       .  A
C419        C471   1.510       .  S
C421        N422   1.375       .  A
C421        N426   1.375       .  A
C421        C502   1.530       .  S
N422        C423   1.379       .  A
C423        N424   1.356       .  A
C423        C460   1.491       .  S
N424        C425   1.354       .  A
C425        N426   1.374       .  A
C425        C485   1.498       .  S
C427        N428   1.366       .  A
C427        N432   1.371       .  A
C427        C459   1.475       .  S
N428        C429   1.361       .  A
C429        N430   1.363       .  A
C429        C472   1.478       .  S
N430        C431   1.359       .  A
C431        N432   1.361       .  A
C431        C443   1.494       .  S
O433        C443   1.285       .  A
O433      Cu1257   2.067   1_455  S
O434        C444   1.285       .  A
O434       Cu441   2.068       .  S
O435        C445   1.273       .  A
O435       Cu441   1.967       .  S
O436        C446   1.274       .  A
O436       Cu441   1.996       .  S
O437       C1262   1.280       .  A
O437       Cu442   2.003       .  S
O438       C1261   1.279   1_455  A
O438       Cu442   2.004       .  S
O439        C444   1.278       .  A
O439      Cu1258   2.018       .  S
O440        C443   1.278       .  A
O440       Cu442   2.024       .  S
Cu441      O1249   2.067       .  S
Cu441     Cu1258   2.368       .  S
Cu442      O1255   2.018   1_455  S
Cu442     Cu1257   2.368   1_455  S
C445        C598   1.474       .  S
C445       O1254   1.279       .  A
C446        C582   1.472       .  S
C446       O1253   1.280       .  A
O447        C661   1.279   1_554  A
O447       Cu455   2.020       .  S
O448        C662   1.284       .  A
O448       Cu455   2.043       .  S
O449        C459   1.280       .  A
O449       Cu455   2.027       .  S
O450        C460   1.281       .  A
O450       Cu659   2.040       .  S
O451        C460   1.281       .  A
O451       Cu456   2.029       .  S
O452        C459   1.278       .  A
O452       Cu660   2.018   1_554  S
O453        C458   1.273       .  A
O453       Cu456   1.963       .  S
O454        C457   1.271       .  A
O454       Cu456   1.942       .  S
Cu455       O654   2.040       .  S
Cu455      Cu660   2.368   1_554  S
Cu456       O656   2.018       .  S
Cu456      Cu659   2.368       .  S
C457        C566   1.469       .  S
C457        O651   1.279       .  A
C458        C550   1.490       .  S
C458        O652   1.284       .  A
O461        C471   1.284       .  A
O461       Cu469   2.054       .  S
O462        C472   1.275       .  A
O463        C473   1.275       .  A
O463       Cu469   1.943   1_545  S
O464        C474   1.263       .  A
O464       Cu469   1.949       .  S
O465       Cu470   2.000       .  S
O466       Cu470   2.017       .  S
O467        C472   1.283       .  A
O467       Cu470   2.053       .  S
O468        C471   1.283       .  A
C473        C518   1.470       .  S
C474        C537   1.440       .  S
O475        C485   1.280       .  A
O475      Cu1299   2.048   1_455  S
O476        C486   1.279       .  A
O476       Cu483   2.049       .  S
O477        C487   1.275       .  A
O477       Cu483   2.006       .  S
O478        C488   1.279       .  A
O478       Cu483   1.936       .  S
O479       C1304   1.258       .  A
O479       Cu484   1.915   1_455  S
O480       C1303   1.272       .  A
O480       Cu484   1.926       .  S
O481        C486   1.281       .  A
O481      Cu1300   2.046       .  S
O482        C485   1.285       .  A
O482       Cu484   2.064   1_455  S
Cu483      O1291   2.048       .  S
Cu483     Cu1300   2.376       .  S
Cu484      O1297   2.046       .  S
Cu484     Cu1299   2.376       .  S
C487        C601   1.451       .  S
C487       O1296   1.272       .  A
C488        C585   1.413       .  S
C488       O1295   1.258       .  A
O489       Cu497   1.976       .  S
O490       Cu497   1.969       .  S
O491        C501   1.274       .  A
O492        C502   1.288       .  A
O492       Cu497   2.095       .  S
O493        C502   1.286       .  A
O494        C501   1.288       .  A
O494       Cu498   2.068       .  S
O495        C500   1.268       .  A
O495       Cu498   1.975       .  S
O496        C499   1.276       .  A
O496       Cu498   1.969       .  S
C499        C521   1.476       .  S
C500        C534   1.459       .  S
O503        C513   1.277       .  A
O503       Cu511   2.026       .  S
O504        C514   1.279       .  A
O504       Cu715   2.026       .  S
O505        C719   1.278       .  A
O505       Cu511   2.029       .  S
O506        C720   1.283       .  A
O506       Cu511   2.008   1_556  S
O507        C516   1.262       .  A
O507       Cu512   1.957       .  S
O508        C515   1.274       .  A
O508       Cu512   1.944       .  S
O509        C514   1.283       .  A
O509       Cu512   2.050       .  S
O510        C513   1.284       .  A
O510       Cu716   2.061   1_554  S
Cu511       O708   2.026   1_554  S
Cu511      Cu716   2.363   1_554  S
Cu512       O714   2.060       .  S
Cu512      Cu715   2.363       .  S
C515        C553   1.472       .  S
C515        O709   1.278       .  A
C516        C569   1.458       .  S
C516        O710   1.283       .  A
C517        C518   1.404       .  A
C517        C726   1.413   1_554  A
C517        H524   1.083       .  S
C519        C724   1.416       .  A
C519        C526   1.499       .  S
C520        C723   1.416       .  A
C520        C521   1.414       .  A
C520        H525   1.084       .  S
C522        C721   1.413       .  A
C522        C523   1.505   1_545  S
C523        H527   1.111       .  S
C523        H528   1.110   1_565  S
C523        H529   1.108       .  S
C526        H530   1.108   1_556  S
C526        H531   1.110       .  S
C526        H532   1.108       .  S
C533        C538   1.395       .  A
C533        H540   1.084       .  S
C534        C535   1.397       .  A
C535        C536   1.393       .  A
C535        C542   1.502       .  S
C536        H541   1.068       .  S
C537        C538   1.395       .  A
C538        C539   1.500       .  S
C539        H543   1.110       .  S
C539        H544   1.111       .  S
C539        H545   1.111       .  S
C542        H546   1.111       .  S
C542        H547   1.111       .  S
C542        H548   1.110       .  S
C549        C550   1.416       .  A
C549       C1370   1.405   1_455  A
C549        H556   1.084       .  S
C550        C755   1.415   1_455  A
C551        C754   1.415   1_655  A
C551       C1368   1.416       .  A
C551        C558   1.490       .  S
C552       C1367   1.416       .  A
C552        C757   1.401       .  A
C552        H557   1.084       .  S
C553        C756   1.401       .  A
C553        C554   1.405       .  A
C554       C1365   1.405       .  A
C554        C555   1.498       .  S
C555        H559   1.110       .  S
C555        H560   1.110       .  S
C555        H561   1.110       .  S
C558        H562   1.110       .  S
C558        H563   1.110   1_655  S
C558        H564   1.103       .  S
C565        C770   1.404       .  A
C565        C570   1.405       .  A
C565        H572   1.083   1_556  S
C566        C769   1.404       .  A
C566        C567   1.422       .  A
C567        C568   1.392       .  A
C567        C574   1.506       .  S
C568        C569   1.392       .  A
C568        H573   1.080       .  S
C569        C774   1.404       .  A
C570        C773   1.404       .  A
C570        C571   1.499       .  S
C571        H575   1.104   1_556  S
C571        H576   1.109       .  S
C571        H577   1.109   1_556  S
C574        H578   1.106       .  S
C574        H579   1.110       .  S
C574        H580   1.111       .  S
C581       C1398   1.408       .  A
C581        H588   1.081       .  S
C582       C1397   1.408       .  A
C582        C583   1.415       .  A
C583        C590   1.506       .  S
C584        C585   1.397       .  A
C584        H589   1.084       .  S
C585       C1402   1.398       .  A
C586       C1401   1.398       .  A
C586        C587   1.508       .  S
C587        H591   1.107       .  S
C587        H592   1.109       .  S
C587        H593   1.109       .  S
C590        H594   1.110       .  S
C590        H595   1.110       .  S
C590        H596   1.111       .  S
C597       C1414   1.403       .  A
C597        C602   1.401       .  A
C597        H604   1.084   1_655  S
C598       C1413   1.403       .  A
C598        C599   1.426       .  A
C599        C600   1.402       .  A
C599        C606   1.509       .  S
C600        C601   1.395       .  A
C600        H605   1.081       .  S
C601       C1418   1.412       .  A
C602       C1417   1.412       .  A
C602        C603   1.500       .  S
C603        H607   1.110       .  S
C603        H608   1.111       .  S
C603        H609   1.107   1_655  S
C606        H610   1.108       .  S
C606        H611   1.108       .  S
C606        H612   1.111       .  S
C613        N614   1.361       .  A
C613        N618   1.374       .  A
C613        C705   1.490       .  S
N614        C615   1.360       .  A
C615        N616   1.361       .  A
C615        C718   1.490       .  S
N616        C617   1.366       .  A
C617        N618   1.368       .  A
C617        C648   1.495       .  S
C619        N620   1.365       .  A
C619        N624   1.376       .  A
C619        C690   1.505       .  S
N620        C621   1.361       .  A
C621        N622   1.363       .  A
C621        C717   1.488       .  S
N622        C623   1.365       .  A
C623        N624   1.375       .  A
C623        C675   1.510       .  S
C625        N626   1.375       .  A
C625        N630   1.375       .  A
C625        C706   1.530       .  S
N626        C627   1.379       .  A
C627        N628   1.356       .  A
C627        C664   1.491       .  S
N628        C629   1.354       .  A
C629        N630   1.374       .  A
C629        C689   1.498       .  S
C631        N632   1.366       .  A
C631        N636   1.371       .  A
C631        C663   1.475       .  S
N632        C633   1.361       .  A
C633        N634   1.363       .  A
C633        C676   1.478       .  S
N634        C635   1.359       .  A
C635        N636   1.361       .  A
C635        C647   1.494       .  S
O637        C647   1.285       .  A
O637      Cu1461   2.067   1_455  S
O638        C648   1.285       .  A
O638       Cu645   2.068       .  S
O639        C649   1.273       .  A
O639       Cu645   1.967       .  S
O640        C650   1.274       .  A
O640       Cu645   1.996       .  S
O641       C1466   1.280       .  A
O641       Cu646   2.003       .  S
O642       C1465   1.279   1_455  A
O642       Cu646   2.004       .  S
O643        C648   1.278       .  A
O643      Cu1462   2.018       .  S
O644        C647   1.278       .  A
O644       Cu646   2.024       .  S
Cu645      O1453   2.067       .  S
Cu645     Cu1462   2.368       .  S
Cu646      O1459   2.018   1_455  S
Cu646     Cu1461   2.368   1_455  S
C649        C802   1.474       .  S
C649       O1458   1.279       .  A
C650        C786   1.472       .  S
C650       O1457   1.280       .  A
O651       Cu659   2.020       .  S
O652       Cu659   2.043       .  S
O653        C663   1.280       .  A
O653       Cu659   2.027       .  S
O654        C664   1.281   1_554  A
O655        C664   1.281       .  A
O655       Cu660   2.029       .  S
O656        C663   1.278       .  A
O657        C662   1.273       .  A
O657       Cu660   1.963   1_554  S
O658        C661   1.271       .  A
O658       Cu660   1.942       .  S
C661        C770   1.469       .  S
C662        C754   1.490       .  S
O665        C675   1.284       .  A
O665       Cu673   2.054       .  S
O666        C676   1.275       .  A
O667        C677   1.275       .  A
O667       Cu673   1.943   1_545  S
O668        C678   1.263       .  A
O668       Cu673   1.949       .  S
O669       Cu674   2.000       .  S
O670       Cu674   2.017       .  S
O671        C676   1.283       .  A
O671       Cu674   2.053       .  S
O672        C675   1.283       .  A
C677        C722   1.470       .  S
C678        C741   1.440       .  S
O679        C689   1.280       .  A
O679      Cu1503   2.048   1_455  S
O680        C690   1.279       .  A
O680       Cu687   2.049       .  S
O681        C691   1.275       .  A
O681       Cu687   2.006       .  S
O682        C692   1.279       .  A
O682       Cu687   1.936       .  S
O683       C1508   1.258       .  A
O683       Cu688   1.915   1_455  S
O684       C1507   1.272       .  A
O684       Cu688   1.926       .  S
O685        C690   1.281       .  A
O685      Cu1504   2.046       .  S
O686        C689   1.285       .  A
O686       Cu688   2.064   1_455  S
Cu687      O1495   2.048       .  S
Cu687     Cu1504   2.376       .  S
Cu688      O1501   2.046       .  S
Cu688     Cu1503   2.376       .  S
C691        C805   1.451       .  S
C691       O1500   1.272       .  A
C692        C789   1.413       .  S
C692       O1499   1.258       .  A
O693       Cu701   1.976       .  S
O694       Cu701   1.969       .  S
O695        C705   1.274       .  A
O696        C706   1.288       .  A
O696       Cu701   2.095       .  S
O697        C706   1.286       .  A
O698        C705   1.288       .  A
O698       Cu702   2.068       .  S
O699        C704   1.268       .  A
O699       Cu702   1.975       .  S
O700        C703   1.276       .  A
O700       Cu702   1.969       .  S
C703        C725   1.476       .  S
C704        C738   1.459       .  S
O707        C717   1.277       .  A
O707       Cu715   2.026       .  S
O708        C718   1.279       .  A
O709       Cu715   2.029       .  S
O710       Cu715   2.008       .  S
O711        C720   1.262       .  A
O711       Cu716   1.957       .  S
O712        C719   1.274       .  A
O712       Cu716   1.944   1_554  S
O713        C718   1.283       .  A
O713       Cu716   2.050       .  S
O714        C717   1.284       .  A
C719        C757   1.472       .  S
C720        C773   1.458       .  S
C721        C722   1.404       .  A
C721        H728   1.083       .  S
C723        C730   1.499       .  S
C724        C725   1.414       .  A
C724        H729   1.084       .  S
C726        C727   1.505   1_545  S
C727        H731   1.111       .  S
C727        H732   1.110   1_565  S
C727        H733   1.108       .  S
C730        H734   1.108       .  S
C730        H735   1.110       .  S
C730        H736   1.108       .  S
C737        C742   1.395       .  A
C737        H744   1.084       .  S
C738        C739   1.397       .  A
C739        C740   1.393       .  A
C739        C746   1.502       .  S
C740        H745   1.068       .  S
C741        C742   1.395       .  A
C742        C743   1.500       .  S
C743        H747   1.110       .  S
C743        H748   1.111       .  S
C743        H749   1.111       .  S
C746        H750   1.111       .  S
C746        H751   1.111       .  S
C746        H752   1.110       .  S
C753        C754   1.416       .  A
C753       C1574   1.405   1_455  A
C753        H760   1.084       .  S
C755       C1572   1.416       .  A
C755        C762   1.490       .  S
C756       C1571   1.416       .  A
C756        H761   1.084       .  S
C757        C758   1.405       .  A
C758       C1569   1.405       .  A
C758        C759   1.498       .  S
C759        H763   1.110       .  S
C759        H764   1.110       .  S
C759        H765   1.110       .  S
C762        H766   1.110       .  S
C762        H767   1.110   1_655  S
C762        H768   1.103       .  S
C769        C774   1.405       .  A
C769        H776   1.083       .  S
C770        C771   1.422       .  A
C771        C772   1.392       .  A
C771        C778   1.506       .  S
C772        C773   1.392       .  A
C772        H777   1.080       .  S
C774        C775   1.499       .  S
C775        H779   1.104       .  S
C775        H780   1.109       .  S
C775        H781   1.109       .  S
C778        H782   1.106       .  S
C778        H783   1.110       .  S
C778        H784   1.111       .  S
C785       C1602   1.408       .  A
C785        H792   1.081       .  S
C786       C1601   1.408       .  A
C786        C787   1.415       .  A
C787        C794   1.506       .  S
C788        C789   1.397       .  A
C788        H793   1.084       .  S
C789       C1606   1.398       .  A
C790       C1605   1.398       .  A
C790        C791   1.508       .  S
C791        H795   1.107       .  S
C791        H796   1.109       .  S
C791        H797   1.109       .  S
C794        H798   1.110       .  S
C794        H799   1.110       .  S
C794        H800   1.111       .  S
C801       C1618   1.403       .  A
C801        C806   1.401       .  A
C801        H808   1.084   1_655  S
C802       C1617   1.403       .  A
C802        C803   1.426       .  A
C803        C804   1.402       .  A
C803        C810   1.509       .  S
C804        C805   1.395       .  A
C804        H809   1.081       .  S
C805       C1622   1.412       .  A
C806       C1621   1.412       .  A
C806        C807   1.500       .  S
C807        H811   1.110       .  S
C807        H812   1.111       .  S
C807        H813   1.107   1_655  S
C810        H814   1.108       .  S
C810        H815   1.108       .  S
C810        H816   1.111       .  S
C817        N818   1.375       .  A
C817        N822   1.381       .  A
C817        C909   1.513       .  S
N818        C819   1.366       .  A
C819        N820   1.348       .  A
C819        C922   1.488       .  S
N820        C821   1.351       .  A
C821        N822   1.378       .  A
C821        C852   1.493       .  S
C823        N824   1.361       .  A
C823        N828   1.367       .  A
C823        C894   1.485       .  S
N824        C825   1.357       .  A
C825        N826   1.360       .  A
C825        C921   1.483       .  S
N826        C827   1.368       .  A
C827        N828   1.367       .  A
C827        C879   1.488       .  S
C829        N830   1.366       .  A
C829        N834   1.358       .  A
C829        C910   1.494       .  S
N830        C831   1.375       .  A
C831        N832   1.374       .  A
C831        C868   1.513       .  S
N832        C833   1.375       .  A
C833        N834   1.358       .  A
C833        C893   1.495       .  S
C835        N836   1.371       .  A
C835        N840   1.367       .  A
C835        C867   1.492       .  S
N836        C837   1.372       .  A
C837        N838   1.380       .  A
C837        C880   1.524       .  S
N838        C839   1.379       .  A
C839        N840   1.359       .  A
C839        C851   1.519       .  S
O841        C851   1.291       .  A
O842        C852   1.281       .  A
O842       Cu849   2.063       .  S
O843        C853   1.281       .  A
O843       Cu849   2.028       .  S
O844        C854   1.271   1_655  A
O844       Cu849   1.965       .  S
O845       Cu850   1.880       .  S
O846       Cu850   1.952       .  S
O847        C852   1.283       .  A
O848        C851   1.279       .  A
O848       Cu850   2.038       .  S
C853       C1006   1.488       .  S
C854        C990   1.434       .  S
O855       C1069   1.278       .  A
O855       Cu863   1.972   1_556  S
O856       C1070   1.277       .  A
O856       Cu863   2.001       .  S
O857        C867   1.276       .  A
O857       Cu863   2.013       .  S
O858        C868   1.280       .  A
O858      Cu1067   2.034       .  S
O859        C868   1.289       .  A
O859       Cu864   2.091       .  S
O860        C867   1.286   1_556  A
O860      Cu1068   2.075       .  S
O861        C866   1.276       .  A
O861       Cu864   1.975       .  S
O862        C865   1.270       .  A
O862       Cu864   1.979       .  S
Cu863      O1062   2.034   1_554  S
Cu863     Cu1068   2.368   1_554  S
Cu864      O1064   2.075       .  S
Cu864     Cu1067   2.368       .  S
C865        C974   1.453       .  S
C865       O1059   1.278       .  A
C866        C958   1.479       .  S
C866       O1060   1.277       .  A
O869        C879   1.277       .  A
O869       Cu877   2.013       .  S
O870        C880   1.288       .  A
O870      Cu1285   2.090   1_545  S
O871        C881   1.277       .  A
O871       Cu877   1.979       .  S
O872        C882   1.275       .  A
O872       Cu877   1.983       .  S
O873       C1290   1.280       .  A
O873       Cu878   1.936   1_565  S
O874       C1289   1.273       .  A
O874       Cu878   2.000       .  S
O875        C880   1.284       .  A
O875       Cu878   2.080       .  S
O876        C879   1.284       .  A
O876      Cu1286   2.056       .  S
Cu877      O1278   1.997       .  S
Cu877     Cu1286   2.369       .  S
Cu878      O1284   2.065   1_545  S
Cu878     Cu1285   2.352   1_545  S
C881        C926   1.467       .  S
C881       O1282   1.276       .  A
C882        C945   1.479       .  S
C882       O1281   1.276       .  A
O883        C893   1.282       .  A
O884        C894   1.279       .  A
O884       Cu891   2.044       .  S
O885        C895   1.274       .  A
O885       Cu891   2.017       .  S
O886        C896   1.284       .  A
O886       Cu891   2.011   1_455  S
O887       Cu892   1.977       .  S
O888       Cu892   1.923       .  S
O889        C894   1.277       .  A
O890        C893   1.281       .  A
O890       Cu892   2.054       .  S
C895       C1009   1.462       .  S
C896        C993   1.465       .  S
O897       C1315   1.278       .  A
O897       Cu905   2.025       .  S
O898       C1316   1.283       .  A
O898       Cu905   1.987       .  S
O899        C909   1.285       .  A
O899      Cu1313   2.077   1_545  S
O900        C910   1.280       .  A
O900       Cu905   2.029       .  S
O901        C910   1.283       .  A
O901      Cu1314   2.063       .  S
O902        C909   1.285       .  A
O902       Cu906   2.059       .  S
O903        C908   1.272   1_545  A
O903       Cu906   1.975       .  S
O904        C907   1.277       .  A
O904       Cu906   1.978       .  S
Cu905      O1307   2.009       .  S
Cu905     Cu1314   2.370       .  S
Cu906      O1309   2.086   1_545  S
Cu906     Cu1313   2.363   1_545  S
C907        C929   1.483       .  S
C907       O1305   1.274   1_545  A
C908        C942   1.457       .  S
C908       O1306   1.275       .  A
O911        C921   1.278       .  A
O911       Cu919   2.035       .  S
O912        C922   1.279       .  A
O912      Cu1123   2.045       .  S
O913       C1127   1.277       .  A
O913       Cu919   2.037       .  S
O914       C1128   1.286       .  A
O914       Cu919   2.012   1_556  S
O915        C924   1.266       .  A
O915       Cu920   1.972       .  S
O916        C923   1.272       .  A
O916       Cu920   1.935       .  S
O917        C922   1.283       .  A
O917       Cu920   2.021       .  S
O918        C921   1.281       .  A
O918      Cu1124   2.032   1_554  S
Cu919      O1116   2.045   1_554  S
Cu919     Cu1124   2.371   1_554  S
Cu920      O1122   2.032       .  S
Cu920     Cu1123   2.371       .  S
C923        C961   1.471       .  S
C923       O1117   1.277       .  A
C924        C977   1.471       .  S
C924       O1118   1.286       .  A
C925        C926   1.403       .  A
C925       C1134   1.396   1_554  A
C925        H932   1.081       .  S
C926       C1335   1.406   1_554  A
C927       C1334   1.406       .  A
C927       C1132   1.405       .  A
C927        C934   1.499       .  S
C928       C1131   1.405       .  A
C928        C929   1.414       .  A
C928        H933   1.084       .  S
C929       C1338   1.430       .  A
C930       C1129   1.396       .  A
C930       C1337   1.404       .  A
C930        C931   1.492       .  S
C931        H935   1.110       .  S
C931        H936   1.109       .  S
C931        H937   1.104       .  S
C934        H938   1.111       .  S
C934        H939   1.110       .  S
C934        H940   1.108       .  S
C941       C1350   1.400       .  A
C941        C946   1.406       .  A
C941        H948   1.084       .  S
C942       C1349   1.411       .  A
C942        C943   1.419   1_565  A
C943        C944   1.406       .  A
C943        C950   1.507       .  S
C944       C1353   1.401   1_545  A
C944        H949   1.085       .  S
C945       C1352   1.409       .  A
C945        C946   1.422       .  A
C946        C947   1.507       .  S
C947        H951   1.111       .  S
C947        H952   1.110       .  S
C947        H953   1.109       .  S
C950        H954   1.110       .  S
C950        H955   1.109       .  S
C950        H956   1.111       .  S
C957        C958   1.411       .  A
C957        H964   1.084       .  S
C958       C1163   1.412       .  A
C959       C1162   1.412       .  A
C959        C966   1.494       .  S
C960       C1165   1.407       .  A
C960        H965   1.082       .  S
C961       C1164   1.407       .  A
C961        C962   1.405       .  A
C962        C963   1.493       .  S
C963        H967   1.110       .  S
C963        H968   1.111       .  S
C963        H969   1.107       .  S
C966        H970   1.110       .  S
C966        H971   1.110       .  S
C966        H972   1.103       .  S
C973       C1178   1.401       .  A
C973        C978   1.388       .  A
C973        H980   1.081       .  S
C974       C1177   1.401       .  A
C974        C975   1.408       .  A
C975        C976   1.411       .  A
C975        C982   1.498       .  S
C976        C977   1.409       .  A
C976        H981   1.084       .  S
C977       C1182   1.394       .  A
C978       C1181   1.394       .  A
C978        C979   1.485       .  S
C979        H983   1.106       .  S
C979        H984   1.105       .  S
C979        H985   1.110       .  S
C982        H986   1.110       .  S
C982        H987   1.110       .  S
C982        H988   1.108       .  S
C989       C1402   1.364   1_545  A
C989        H996   1.085       .  S
C990        C991   1.412   1_545  A
C991       C1400   1.395       .  A
C991        C998   1.506       .  S
C992       C1399   1.406       .  A
C992        C993   1.404       .  A
C992        H997   1.084       .  S
C994       C1397   1.403       .  A
C994        C995   1.501       .  S
C995        H999   1.110       .  S
C995       H1000   1.111       .  S
C995       H1001   1.105       .  S
C998       H1002   1.111   1_565  S
C998       H1003   1.109   1_465  S
C998       H1004   1.111       .  S
C1005      C1010   1.402       .  A
C1005      H1012   1.084       .  S
C1006      C1007   1.421       .  A
C1007      C1008   1.413       .  A
C1007      C1014   1.504       .  S
C1008      C1009   1.407       .  A
C1008      H1013   1.083       .  S
C1010      C1011   1.504       .  S
C1011      H1015   1.109       .  S
C1011      H1016   1.110       .  S
C1011      H1017   1.109       .  S
C1014      H1018   1.110       .  S
C1014      H1019   1.106       .  S
C1014      H1020   1.111       .  S
C1021      N1022   1.375       .  A
C1021      N1026   1.381       .  A
C1021      C1113   1.513       .  S
N1022      C1023   1.366       .  A
C1023      N1024   1.348       .  A
C1023      C1126   1.488       .  S
N1024      C1025   1.351       .  A
C1025      N1026   1.378       .  A
C1025      C1056   1.493       .  S
C1027      N1028   1.361       .  A
C1027      N1032   1.367       .  A
C1027      C1098   1.485       .  S
N1028      C1029   1.357       .  A
C1029      N1030   1.360       .  A
C1029      C1125   1.483       .  S
N1030      C1031   1.368       .  A
C1031      N1032   1.367       .  A
C1031      C1083   1.488       .  S
C1033      N1034   1.366       .  A
C1033      N1038   1.358       .  A
C1033      C1114   1.494       .  S
N1034      C1035   1.375       .  A
C1035      N1036   1.374       .  A
C1035      C1072   1.513       .  S
N1036      C1037   1.375       .  A
C1037      N1038   1.358       .  A
C1037      C1097   1.495       .  S
C1039      N1040   1.371       .  A
C1039      N1044   1.367       .  A
C1039      C1071   1.492       .  S
N1040      C1041   1.372       .  A
C1041      N1042   1.380       .  A
C1041      C1084   1.524       .  S
N1042      C1043   1.379       .  A
C1043      N1044   1.359       .  A
C1043      C1055   1.519       .  S
O1045      C1055   1.291       .  A
O1046      C1056   1.281       .  A
O1046     Cu1053   2.063       .  S
O1047      C1057   1.281       .  A
O1047     Cu1053   2.028       .  S
O1048      C1058   1.271   1_655  A
O1048     Cu1053   1.965       .  S
O1049     Cu1054   1.880       .  S
O1050     Cu1054   1.952       .  S
O1051      C1056   1.283       .  A
O1052      C1055   1.279       .  A
O1052     Cu1054   2.038       .  S
C1057      C1210   1.488       .  S
C1058      C1194   1.434       .  S
O1059     Cu1067   1.972       .  S
O1060     Cu1067   2.001       .  S
O1061      C1071   1.276       .  A
O1061     Cu1067   2.013       .  S
O1062      C1072   1.280       .  A
O1063      C1072   1.289       .  A
O1063     Cu1068   2.091       .  S
O1064      C1071   1.286       .  A
O1065      C1070   1.276   1_556  A
O1065     Cu1068   1.975       .  S
O1066      C1069   1.270       .  A
O1066     Cu1068   1.979       .  S
C1069      C1178   1.453       .  S
C1070      C1162   1.479       .  S
O1073      C1083   1.277       .  A
O1073     Cu1081   2.013       .  S
O1074      C1084   1.288       .  A
O1074     Cu1489   2.090   1_545  S
O1075      C1085   1.277       .  A
O1075     Cu1081   1.979       .  S
O1076      C1086   1.275       .  A
O1076     Cu1081   1.983       .  S
O1077      C1494   1.280       .  A
O1077     Cu1082   1.936   1_565  S
O1078      C1493   1.273       .  A
O1078     Cu1082   2.000       .  S
O1079      C1084   1.284       .  A
O1079     Cu1082   2.080       .  S
O1080      C1083   1.284       .  A
O1080     Cu1490   2.056       .  S
Cu1081     O1482   1.997       .  S
Cu1081    Cu1490   2.369       .  S
Cu1082     O1488   2.065   1_545  S
Cu1082    Cu1489   2.352   1_545  S
C1085      C1130   1.467       .  S
C1085      O1486   1.276       .  A
C1086      C1149   1.479       .  S
C1086      O1485   1.276       .  A
O1087      C1097   1.282       .  A
O1088      C1098   1.279       .  A
O1088     Cu1095   2.044       .  S
O1089      C1099   1.274       .  A
O1089     Cu1095   2.017       .  S
O1090      C1100   1.284       .  A
O1090     Cu1095   2.011   1_455  S
O1091     Cu1096   1.977       .  S
O1092     Cu1096   1.923       .  S
O1093      C1098   1.277       .  A
O1094      C1097   1.281       .  A
O1094     Cu1096   2.054       .  S
C1099      C1213   1.462       .  S
C1100      C1197   1.465       .  S
O1101      C1519   1.278       .  A
O1101     Cu1109   2.025       .  S
O1102      C1520   1.283       .  A
O1102     Cu1109   1.987       .  S
O1103      C1113   1.285       .  A
O1103     Cu1517   2.077   1_545  S
O1104      C1114   1.280       .  A
O1104     Cu1109   2.029       .  S
O1105      C1114   1.283       .  A
O1105     Cu1518   2.063       .  S
O1106      C1113   1.285       .  A
O1106     Cu1110   2.059       .  S
O1107      C1112   1.272   1_545  A
O1107     Cu1110   1.975       .  S
O1108      C1111   1.277       .  A
O1108     Cu1110   1.978       .  S
Cu1109     O1511   2.009       .  S
Cu1109    Cu1518   2.370       .  S
Cu1110     O1513   2.086   1_545  S
Cu1110    Cu1517   2.363   1_545  S
C1111      C1133   1.483       .  S
C1111      O1509   1.274   1_545  A
C1112      C1146   1.457       .  S
C1112      O1510   1.275       .  A
O1115      C1125   1.278       .  A
O1115     Cu1123   2.035       .  S
O1116      C1126   1.279       .  A
O1117     Cu1123   2.037       .  S
O1118     Cu1123   2.012       .  S
O1119      C1128   1.266       .  A
O1119     Cu1124   1.972       .  S
O1120      C1127   1.272       .  A
O1120     Cu1124   1.935   1_554  S
O1121      C1126   1.283       .  A
O1121     Cu1124   2.021       .  S
O1122      C1125   1.281       .  A
C1127      C1165   1.471       .  S
C1128      C1181   1.471       .  S
C1129      C1130   1.403       .  A
C1129      H1136   1.081       .  S
C1130      C1539   1.406       .  A
C1131      C1538   1.406       .  A
C1131      C1138   1.499       .  S
C1132      C1133   1.414   1_554  A
C1132      H1137   1.084       .  S
C1133      C1542   1.430       .  A
C1134      C1541   1.404       .  A
C1134      C1135   1.492       .  S
C1135      H1139   1.110       .  S
C1135      H1140   1.109       .  S
C1135      H1141   1.104       .  S
C1138      H1142   1.111       .  S
C1138      H1143   1.110       .  S
C1138      H1144   1.108       .  S
C1145      C1554   1.400       .  A
C1145      C1150   1.406       .  A
C1145      H1152   1.084       .  S
C1146      C1553   1.411       .  A
C1146      C1147   1.419   1_565  A
C1147      C1148   1.406       .  A
C1147      C1154   1.507       .  S
C1148      C1557   1.401   1_545  A
C1148      H1153   1.085       .  S
C1149      C1556   1.409       .  A
C1149      C1150   1.422       .  A
C1150      C1151   1.507       .  S
C1151      H1155   1.111       .  S
C1151      H1156   1.110       .  S
C1151      H1157   1.109       .  S
C1154      H1158   1.110       .  S
C1154      H1159   1.109       .  S
C1154      H1160   1.111       .  S
C1161      C1162   1.411       .  A
C1161      H1168   1.084       .  S
C1163      C1170   1.494       .  S
C1164      H1169   1.082       .  S
C1165      C1166   1.405       .  A
C1166      C1167   1.493       .  S
C1167      H1171   1.110       .  S
C1167      H1172   1.111       .  S
C1167      H1173   1.107       .  S
C1170      H1174   1.110       .  S
C1170      H1175   1.110       .  S
C1170      H1176   1.103       .  S
C1177      C1182   1.388       .  A
C1177      H1184   1.081       .  S
C1178      C1179   1.408       .  A
C1179      C1180   1.411       .  A
C1179      C1186   1.498       .  S
C1180      C1181   1.409       .  A
C1180      H1185   1.084       .  S
C1182      C1183   1.485       .  S
C1183      H1187   1.106       .  S
C1183      H1188   1.105       .  S
C1183      H1189   1.110       .  S
C1186      H1190   1.110       .  S
C1186      H1191   1.110       .  S
C1186      H1192   1.108       .  S
C1193      C1606   1.364   1_545  A
C1193      H1200   1.085       .  S
C1194      C1195   1.412   1_545  A
C1195      C1604   1.395       .  A
C1195      C1202   1.506       .  S
C1196      C1603   1.406       .  A
C1196      C1197   1.404       .  A
C1196      H1201   1.084       .  S
C1198      C1601   1.403       .  A
C1198      C1199   1.501       .  S
C1199      H1203   1.110       .  S
C1199      H1204   1.111       .  S
C1199      H1205   1.105       .  S
C1202      H1206   1.111   1_565  S
C1202      H1207   1.109   1_465  S
C1202      H1208   1.111       .  S
C1209      C1214   1.402       .  A
C1209      H1216   1.084       .  S
C1210      C1211   1.421       .  A
C1211      C1212   1.413       .  A
C1211      C1218   1.504       .  S
C1212      C1213   1.407       .  A
C1212      H1217   1.083       .  S
C1214      C1215   1.504       .  S
C1215      H1219   1.109       .  S
C1215      H1220   1.110       .  S
C1215      H1221   1.109       .  S
C1218      H1222   1.110       .  S
C1218      H1223   1.106       .  S
C1218      H1224   1.111       .  S
C1225      N1226   1.361       .  A
C1225      N1230   1.374       .  A
C1225      C1317   1.490       .  S
N1226      C1227   1.360       .  A
C1227      N1228   1.361       .  A
C1227      C1330   1.490       .  S
N1228      C1229   1.366       .  A
C1229      N1230   1.368       .  A
C1229      C1260   1.495       .  S
C1231      N1232   1.365       .  A
C1231      N1236   1.376       .  A
C1231      C1302   1.505       .  S
N1232      C1233   1.361       .  A
C1233      N1234   1.363       .  A
C1233      C1329   1.488       .  S
N1234      C1235   1.365       .  A
C1235      N1236   1.375       .  A
C1235      C1287   1.510       .  S
C1237      N1238   1.375       .  A
C1237      N1242   1.375       .  A
C1237      C1318   1.530       .  S
N1238      C1239   1.379       .  A
C1239      N1240   1.356       .  A
C1239      C1276   1.491       .  S
N1240      C1241   1.354       .  A
C1241      N1242   1.374       .  A
C1241      C1301   1.498       .  S
C1243      N1244   1.366       .  A
C1243      N1248   1.371       .  A
C1243      C1275   1.475       .  S
N1244      C1245   1.361       .  A
C1245      N1246   1.363       .  A
C1245      C1288   1.478       .  S
N1246      C1247   1.359       .  A
C1247      N1248   1.361       .  A
C1247      C1259   1.494       .  S
O1249      C1259   1.285       .  A
O1250      C1260   1.285       .  A
O1250     Cu1257   2.068       .  S
O1251      C1261   1.273       .  A
O1251     Cu1257   1.967       .  S
O1252      C1262   1.274       .  A
O1252     Cu1257   1.996   1_455  S
O1253     Cu1258   2.003       .  S
O1254     Cu1258   2.004       .  S
O1255      C1260   1.278       .  A
O1256      C1259   1.278       .  A
O1256     Cu1258   2.024       .  S
C1261      C1414   1.474       .  S
C1262      C1398   1.472       .  S
O1263      C1477   1.279   1_554  A
O1263     Cu1271   2.020       .  S
O1264      C1478   1.284       .  A
O1264     Cu1271   2.043       .  S
O1265      C1275   1.280       .  A
O1265     Cu1271   2.027       .  S
O1266      C1276   1.281       .  A
O1266     Cu1475   2.040       .  S
O1267      C1276   1.281       .  A
O1267     Cu1272   2.029       .  S
O1268      C1275   1.278       .  A
O1268     Cu1476   2.018   1_554  S
O1269      C1274   1.273       .  A
O1269     Cu1272   1.963       .  S
O1270      C1273   1.271       .  A
O1270     Cu1272   1.942       .  S
Cu1271     O1470   2.040       .  S
Cu1271    Cu1476   2.368   1_554  S
Cu1272     O1472   2.018       .  S
Cu1272    Cu1475   2.368       .  S
C1273      C1382   1.469       .  S
C1273      O1467   1.279       .  A
C1274      C1366   1.490       .  S
C1274      O1468   1.284       .  A
O1277      C1287   1.284       .  A
O1277     Cu1285   2.054       .  S
O1278      C1288   1.275       .  A
O1279      C1289   1.275       .  A
O1279     Cu1285   1.943   1_545  S
O1280      C1290   1.263       .  A
O1280     Cu1285   1.949       .  S
O1281     Cu1286   2.000       .  S
O1282     Cu1286   2.017       .  S
O1283      C1288   1.283       .  A
O1283     Cu1286   2.053       .  S
O1284      C1287   1.283       .  A
C1289      C1334   1.470       .  S
C1290      C1353   1.440       .  S
O1291      C1301   1.280       .  A
O1292      C1302   1.279       .  A
O1292     Cu1299   2.049       .  S
O1293      C1303   1.275       .  A
O1293     Cu1299   2.006       .  S
O1294      C1304   1.279   1_655  A
O1294     Cu1299   1.936       .  S
O1295     Cu1300   1.915       .  S
O1296     Cu1300   1.926       .  S
O1297      C1302   1.281       .  A
O1298      C1301   1.285       .  A
O1298     Cu1300   2.064       .  S
C1303      C1417   1.451       .  S
C1304      C1401   1.413       .  S
O1305     Cu1313   1.976       .  S
O1306     Cu1313   1.969       .  S
O1307      C1317   1.274       .  A
O1308      C1318   1.288       .  A
O1308     Cu1313   2.095       .  S
O1309      C1318   1.286       .  A
O1310      C1317   1.288       .  A
O1310     Cu1314   2.068       .  S
O1311      C1316   1.268       .  A
O1311     Cu1314   1.975       .  S
O1312      C1315   1.276       .  A
O1312     Cu1314   1.969       .  S
C1315      C1337   1.476       .  S
C1316      C1350   1.459       .  S
O1319      C1329   1.277       .  A
O1319     Cu1327   2.026       .  S
O1320      C1330   1.279       .  A
O1320     Cu1531   2.026       .  S
O1321      C1535   1.278       .  A
O1321     Cu1327   2.029       .  S
O1322      C1536   1.283       .  A
O1322     Cu1327   2.008   1_556  S
O1323      C1332   1.262       .  A
O1323     Cu1328   1.957       .  S
O1324      C1331   1.274       .  A
O1324     Cu1328   1.944       .  S
O1325      C1330   1.283       .  A
O1325     Cu1328   2.050       .  S
O1326      C1329   1.284       .  A
O1326     Cu1532   2.061   1_554  S
Cu1327     O1524   2.026   1_554  S
Cu1327    Cu1532   2.363   1_554  S
Cu1328     O1530   2.060       .  S
Cu1328    Cu1531   2.363       .  S
C1331      C1369   1.472       .  S
C1331      O1525   1.278       .  A
C1332      C1385   1.458       .  S
C1332      O1526   1.283       .  A
C1333      C1334   1.404       .  A
C1333      C1542   1.413   1_554  A
C1333      H1340   1.083       .  S
C1335      C1540   1.416       .  A
C1335      C1342   1.499       .  S
C1336      C1539   1.416       .  A
C1336      C1337   1.414       .  A
C1336      H1341   1.084       .  S
C1338      C1537   1.413       .  A
C1338      C1339   1.505   1_545  S
C1339      H1343   1.111       .  S
C1339      H1344   1.110   1_565  S
C1339      H1345   1.108       .  S
C1342      H1346   1.108   1_556  S
C1342      H1347   1.110       .  S
C1342      H1348   1.108       .  S
C1349      C1354   1.395       .  A
C1349      H1356   1.084       .  S
C1350      C1351   1.397       .  A
C1351      C1352   1.393       .  A
C1351      C1358   1.502       .  S
C1352      H1357   1.068       .  S
C1353      C1354   1.395       .  A
C1354      C1355   1.500       .  S
C1355      H1359   1.110       .  S
C1355      H1360   1.111       .  S
C1355      H1361   1.111       .  S
C1358      H1362   1.111       .  S
C1358      H1363   1.111       .  S
C1358      H1364   1.110       .  S
C1365      C1366   1.416       .  A
C1365      H1372   1.084       .  S
C1366      C1571   1.415       .  A
C1367      C1570   1.415       .  A
C1367      C1374   1.490       .  S
C1368      C1573   1.401       .  A
C1368      H1373   1.084       .  S
C1369      C1572   1.401       .  A
C1369      C1370   1.405       .  A
C1370      C1371   1.498       .  S
C1371      H1375   1.110   1_655  S
C1371      H1376   1.110       .  S
C1371      H1377   1.110       .  S
C1374      H1378   1.110       .  S
C1374      H1379   1.110       .  S
C1374      H1380   1.103       .  S
C1381      C1586   1.404       .  A
C1381      C1386   1.405       .  A
C1381      H1388   1.083   1_556  S
C1382      C1585   1.404       .  A
C1382      C1383   1.422       .  A
C1383      C1384   1.392       .  A
C1383      C1390   1.506       .  S
C1384      C1385   1.392       .  A
C1384      H1389   1.080       .  S
C1385      C1590   1.404       .  A
C1386      C1589   1.404       .  A
C1386      C1387   1.499       .  S
C1387      H1391   1.104   1_556  S
C1387      H1392   1.109       .  S
C1387      H1393   1.109   1_556  S
C1390      H1394   1.106       .  S
C1390      H1395   1.110       .  S
C1390      H1396   1.111       .  S
C1397      H1404   1.081       .  S
C1398      C1399   1.415       .  A
C1399      C1406   1.506   1_455  S
C1400      C1401   1.397       .  A
C1400      H1405   1.084       .  S
C1402      C1403   1.508       .  S
C1403      H1407   1.107       .  S
C1403      H1408   1.109       .  S
C1403      H1409   1.109       .  S
C1406      H1410   1.110       .  S
C1406      H1411   1.110       .  S
C1406      H1412   1.111       .  S
C1413      C1418   1.401       .  A
C1413      H1420   1.084       .  S
C1414      C1415   1.426       .  A
C1415      C1416   1.402       .  A
C1415      C1422   1.509       .  S
C1416      C1417   1.395       .  A
C1416      H1421   1.081       .  S
C1418      C1419   1.500       .  S
C1419      H1423   1.110       .  S
C1419      H1424   1.111       .  S
C1419      H1425   1.107       .  S
C1422      H1426   1.108       .  S
C1422      H1427   1.108       .  S
C1422      H1428   1.111       .  S
C1429      N1430   1.361       .  A
C1429      N1434   1.374       .  A
C1429      C1521   1.490       .  S
N1430      C1431   1.360       .  A
C1431      N1432   1.361       .  A
C1431      C1534   1.490       .  S
N1432      C1433   1.366       .  A
C1433      N1434   1.368       .  A
C1433      C1464   1.495       .  S
C1435      N1436   1.365       .  A
C1435      N1440   1.376       .  A
C1435      C1506   1.505       .  S
N1436      C1437   1.361       .  A
C1437      N1438   1.363       .  A
C1437      C1533   1.488       .  S
N1438      C1439   1.365       .  A
C1439      N1440   1.375       .  A
C1439      C1491   1.510       .  S
C1441      N1442   1.375       .  A
C1441      N1446   1.375       .  A
C1441      C1522   1.530       .  S
N1442      C1443   1.379       .  A
C1443      N1444   1.356       .  A
C1443      C1480   1.491       .  S
N1444      C1445   1.354       .  A
C1445      N1446   1.374       .  A
C1445      C1505   1.498       .  S
C1447      N1448   1.366       .  A
C1447      N1452   1.371       .  A
C1447      C1479   1.475       .  S
N1448      C1449   1.361       .  A
C1449      N1450   1.363       .  A
C1449      C1492   1.478       .  S
N1450      C1451   1.359       .  A
C1451      N1452   1.361       .  A
C1451      C1463   1.494       .  S
O1453      C1463   1.285       .  A
O1454      C1464   1.285       .  A
O1454     Cu1461   2.068       .  S
O1455      C1465   1.273       .  A
O1455     Cu1461   1.967       .  S
O1456      C1466   1.274       .  A
O1456     Cu1461   1.996   1_455  S
O1457     Cu1462   2.003       .  S
O1458     Cu1462   2.004       .  S
O1459      C1464   1.278       .  A
O1460      C1463   1.278       .  A
O1460     Cu1462   2.024       .  S
C1465      C1618   1.474       .  S
C1466      C1602   1.472       .  S
O1467     Cu1475   2.020       .  S
O1468     Cu1475   2.043       .  S
O1469      C1479   1.280       .  A
O1469     Cu1475   2.027       .  S
O1470      C1480   1.281   1_554  A
O1471      C1480   1.281       .  A
O1471     Cu1476   2.029       .  S
O1472      C1479   1.278       .  A
O1473      C1478   1.273       .  A
O1473     Cu1476   1.963   1_554  S
O1474      C1477   1.271       .  A
O1474     Cu1476   1.942       .  S
C1477      C1586   1.469       .  S
C1478      C1570   1.490       .  S
O1481      C1491   1.284       .  A
O1481     Cu1489   2.054       .  S
O1482      C1492   1.275       .  A
O1483      C1493   1.275       .  A
O1483     Cu1489   1.943   1_545  S
O1484      C1494   1.263       .  A
O1484     Cu1489   1.949       .  S
O1485     Cu1490   2.000       .  S
O1486     Cu1490   2.017       .  S
O1487      C1492   1.283       .  A
O1487     Cu1490   2.053       .  S
O1488      C1491   1.283       .  A
C1493      C1538   1.470       .  S
C1494      C1557   1.440       .  S
O1495      C1505   1.280       .  A
O1496      C1506   1.279       .  A
O1496     Cu1503   2.049       .  S
O1497      C1507   1.275       .  A
O1497     Cu1503   2.006       .  S
O1498      C1508   1.279   1_655  A
O1498     Cu1503   1.936       .  S
O1499     Cu1504   1.915       .  S
O1500     Cu1504   1.926       .  S
O1501      C1506   1.281       .  A
O1502      C1505   1.285       .  A
O1502     Cu1504   2.064       .  S
C1507      C1621   1.451       .  S
C1508      C1605   1.413       .  S
O1509     Cu1517   1.976       .  S
O1510     Cu1517   1.969       .  S
O1511      C1521   1.274       .  A
O1512      C1522   1.288       .  A
O1512     Cu1517   2.095       .  S
O1513      C1522   1.286       .  A
O1514      C1521   1.288       .  A
O1514     Cu1518   2.068       .  S
O1515      C1520   1.268       .  A
O1515     Cu1518   1.975       .  S
O1516      C1519   1.276       .  A
O1516     Cu1518   1.969       .  S
C1519      C1541   1.476       .  S
C1520      C1554   1.459       .  S
O1523      C1533   1.277       .  A
O1523     Cu1531   2.026       .  S
O1524      C1534   1.279       .  A
O1525     Cu1531   2.029       .  S
O1526     Cu1531   2.008       .  S
O1527      C1536   1.262       .  A
O1527     Cu1532   1.957       .  S
O1528      C1535   1.274       .  A
O1528     Cu1532   1.944   1_554  S
O1529      C1534   1.283       .  A
O1529     Cu1532   2.050       .  S
O1530      C1533   1.284       .  A
C1535      C1573   1.472       .  S
C1536      C1589   1.458       .  S
C1537      C1538   1.404       .  A
C1537      H1544   1.083       .  S
C1539      C1546   1.499       .  S
C1540      C1541   1.414       .  A
C1540      H1545   1.084       .  S
C1542      C1543   1.505   1_545  S
C1543      H1547   1.111       .  S
C1543      H1548   1.110   1_565  S
C1543      H1549   1.108       .  S
C1546      H1550   1.108       .  S
C1546      H1551   1.110       .  S
C1546      H1552   1.108       .  S
C1553      C1558   1.395       .  A
C1553      H1560   1.084       .  S
C1554      C1555   1.397       .  A
C1555      C1556   1.393       .  A
C1555      C1562   1.502       .  S
C1556      H1561   1.068       .  S
C1557      C1558   1.395       .  A
C1558      C1559   1.500       .  S
C1559      H1563   1.110       .  S
C1559      H1564   1.111       .  S
C1559      H1565   1.111       .  S
C1562      H1566   1.111       .  S
C1562      H1567   1.111       .  S
C1562      H1568   1.110       .  S
C1569      C1570   1.416       .  A
C1569      H1576   1.084       .  S
C1571      C1578   1.490       .  S
C1572      H1577   1.084       .  S
C1573      C1574   1.405       .  A
C1574      C1575   1.498       .  S
C1575      H1579   1.110   1_655  S
C1575      H1580   1.110       .  S
C1575      H1581   1.110       .  S
C1578      H1582   1.110       .  S
C1578      H1583   1.110       .  S
C1578      H1584   1.103       .  S
C1585      C1590   1.405       .  A
C1585      H1592   1.083       .  S
C1586      C1587   1.422       .  A
C1587      C1588   1.392       .  A
C1587      C1594   1.506       .  S
C1588      C1589   1.392       .  A
C1588      H1593   1.080       .  S
C1590      C1591   1.499       .  S
C1591      H1595   1.104       .  S
C1591      H1596   1.109       .  S
C1591      H1597   1.109       .  S
C1594      H1598   1.106       .  S
C1594      H1599   1.110       .  S
C1594      H1600   1.111       .  S
C1601      H1608   1.081       .  S
C1602      C1603   1.415       .  A
C1603      C1610   1.506   1_455  S
C1604      C1605   1.397       .  A
C1604      H1609   1.084       .  S
C1606      C1607   1.508       .  S
C1607      H1611   1.107       .  S
C1607      H1612   1.109       .  S
C1607      H1613   1.109       .  S
C1610      H1614   1.110       .  S
C1610      H1615   1.110       .  S
C1610      H1616   1.111       .  S
C1617      C1622   1.401       .  A
C1617      H1624   1.084       .  S
C1618      C1619   1.427       .  A
C1619      C1620   1.402       .  A
C1619      C1626   1.509       .  S
C1620      C1621   1.395       .  A
C1620      H1625   1.081       .  S
C1622      C1623   1.500       .  S
C1623      H1627   1.110       .  S
C1623      H1628   1.111       .  S
C1623      H1629   1.107       .  S
C1626      H1630   1.108       .  S
C1626      H1631   1.108       .  S
C1626      H1632   1.111       .  S
