geometry optimzed in LAMMPS
_audit_creation_date              2020-11-30 
_audit_creation_method            'lammps2cif' 
_symmetry_space_group_name_H-M    'P1' 
_symmetry_Int_Tables_number       1 
_symmetry_cell_setting            triclinic 
loop_ 
_symmetry_equiv_pos_as_xyz 
  x,y,z 
_cell_length_a                    56.13196745 
_cell_length_b                    55.03219009851293 
_cell_length_c                    47.07187497739625 
_cell_angle_alpha                 90.88262095740112 
_cell_angle_beta                  90.41449728627452 
_cell_angle_gamma                 88.90755656585814 
loop_ 
_atom_site_label 
_atom_site_type_symbol 
_atom_site_fract_x 
_atom_site_fract_y 
_atom_site_fract_z 
_atom_site_charge 
N1          N  0.98827855  0.59208963  0.79724787    -0.26600
N2          N  0.98970654  0.58404346  0.82350547    -0.34400
C3          C  0.97910886  0.56244348  0.82468228     0.01800
C4          C  0.97018035  0.55671098  0.79797649     0.07800
C5          C  0.97646604  0.57588368  0.78102345    -0.05300
H6          H  0.97704671  0.55221412  0.84392609     0.08400
H7          H  0.97161453  0.57855692  0.75899312     0.09600
Cu8        Cu  0.00180184  0.60447966  0.85770560     0.44200
Cu9        Cu  0.99908150  0.62639949  0.78631451     0.42000
Cu10       Cu  0.00907032  0.66824418  0.84674437     0.43900
N11         N  0.00843749  0.62899003  0.89043170    -0.34000
N12         N  0.01083604  0.65257733  0.88678831    -0.28200
C13         C  0.01327712  0.66350598  0.91246156    -0.04300
C14         C  0.01239439  0.64585350  0.93316491     0.07900
C15         C  0.00928165  0.62424904  0.91832752     0.01700
H16         H  0.01514982  0.68286631  0.91583398     0.09300
H17         H  0.00697610  0.60644909  0.92723798     0.08400
N18         N  0.00481053  0.67880837  0.80460870    -0.35400
N19         N  0.00237278  0.66359199  0.78279612    -0.27600
C20         C  0.99798707  0.67635732  0.75915558    -0.02800
C21         C  0.99706569  0.70084167  0.76637347     0.05800
C22         C  0.00168831  0.70165640  0.79535309     0.03900
H23         H  0.99423597  0.66824091  0.73857454     0.09000
H24         H  0.00117686  0.71760661  0.80907479     0.07800
N25         N  0.87651723  0.36041673  0.79220902    -0.26600
N26         N  0.87279635  0.36893174  0.81824060    -0.34400
C27         C  0.88083590  0.39170123  0.82020838     0.01800
C28         C  0.88987641  0.39774504  0.79412534     0.07800
C29         C  0.88694450  0.37756856  0.77680678    -0.05300
H30         H  0.88030693  0.40295230  0.83925289     0.08400
H31         H  0.89234303  0.37534464  0.75489094     0.09600
Cu32       Cu  0.85686899  0.34949730  0.84990588     0.44200
Cu33       Cu  0.86753809  0.32588356  0.77927361     0.42000
Cu34       Cu  0.83206753  0.29215208  0.82912588     0.43900
N35         N  0.83911249  0.32743137  0.87751475    -0.34000
N36         N  0.82898627  0.30691998  0.86963578    -0.28200
C37         C  0.82044865  0.29606995  0.89273133    -0.04300
C38         C  0.82588144  0.31021774  0.91644117     0.07900
C39         C  0.83758826  0.33003470  0.90585235     0.01700
H40         H  0.81230347  0.27841625  0.89240420     0.09300
H41         H  0.84589716  0.34442837  0.91804650     0.08400
N42         N  0.84344330  0.27859160  0.79017408    -0.35400
N43         N  0.85637619  0.29090024  0.77217321    -0.27600
C44         C  0.86193524  0.27654247  0.74979490    -0.02800
C45         C  0.85213723  0.25412429  0.75402908     0.05800
C46         C  0.84058296  0.25594572  0.77979967     0.03900
H47         H  0.87296950  0.28178416  0.73224761     0.09000
H48         H  0.83132197  0.24171507  0.79053901     0.07800
N49         N  0.52737334  0.98276027  0.82824514    -0.26600
N50         N  0.51979820  0.98099358  0.85463107    -0.34400
C51         C  0.49834015  0.99205048  0.85683615     0.01800
C52         C  0.49203630  0.00116090  0.83054996     0.07800
C53         C  0.51087321  0.99493526  0.81288763    -0.05300
H54         H  0.48767234  0.99257630  0.87589723     0.08400
H55         H  0.51226179  0.99850317  0.79042828     0.09600
Cu56       Cu  0.53789435  0.96172698  0.88574584     0.44200
Cu57       Cu  0.55912990  0.96714761  0.81436543     0.42000
Cu58       Cu  0.58895796  0.92552076  0.86311364     0.43900
N59         N  0.55763454  0.93951464  0.91253532    -0.34000
N60         N  0.57617099  0.92606783  0.90430564    -0.28200
C61         C  0.58538995  0.91446879  0.92694058    -0.04300
C62         C  0.57188201  0.92084859  0.95046265     0.07900
C63         C  0.55446357  0.93673424  0.94054662     0.01700
H64         H  0.60097493  0.90260274  0.92639126     0.09300
H65         H  0.54084128  0.94606701  0.95293407     0.08400
N66         N  0.60125041  0.93304114  0.82284905    -0.35400
N67         N  0.59096446  0.94898811  0.80575764    -0.27600
C68         C  0.60496919  0.95203308  0.78312226    -0.02800
C69         C  0.62502270  0.93717621  0.78588517     0.05800
C70         C  0.62190000  0.92524518  0.81128605     0.03900
H71         H  0.60128426  0.96494573  0.76648465     0.09000
H72         H  0.63412372  0.91248937  0.82122876     0.07800
N73         N  0.28343587  0.06215516  0.81416327    -0.26600
N74         N  0.29024363  0.07587103  0.83593808    -0.34400
C75         C  0.31412828  0.07552545  0.83757168     0.01800
C76         C  0.32280786  0.06102521  0.81571621     0.07800
C77         C  0.30293844  0.05267115  0.80132242    -0.05300
H78         H  0.32434250  0.08365623  0.85469576     0.08400
H79         H  0.30264557  0.03951339  0.78401711     0.09600
Cu80       Cu  0.26739684  0.08958704  0.86655344     0.44200
Cu81       Cu  0.24791884  0.05463676  0.80579119     0.42000
Cu82       Cu  0.20802221  0.06621609  0.86522553     0.43900
N83         N  0.24544654  0.08999519  0.90145133    -0.34000
N84         N  0.22416581  0.08016501  0.90146333    -0.28200
C85         C  0.21648812  0.07906919  0.92838091    -0.04300
C86         C  0.23381156  0.08866885  0.94615174     0.07900
C87         C  0.25181438  0.09561632  0.92826112     0.01700
H88         H  0.20016944  0.07056411  0.93467789     0.09300
H89         H  0.26893295  0.10282443  0.93436034     0.08400
N90         N  0.19684442  0.05378296  0.82568616    -0.35400
N91         N  0.21131733  0.04975974  0.80399334    -0.27600
C92         C  0.19841948  0.04242110  0.78137741    -0.02800
C93         C  0.17474647  0.04171151  0.78925611     0.05800
C94         C  0.17438527  0.04903734  0.81747525     0.03900
H95         H  0.20572566  0.03794835  0.76070382     0.09000
H96         H  0.15891427  0.05111328  0.83093167     0.07800
C97         C  0.87896045  0.10016334  0.63237159    -0.01800
C98         C  0.03624401  0.00039917  0.65322244    -0.01800
C99         C  0.77492235  0.95128098  0.66239319    -0.01800
C100        C  0.92551471  0.84946849  0.66411573    -0.01800
N101        N  0.52354905  0.93842763  0.29696256    -0.26600
N102        N  0.51809371  0.94292265  0.27016857    -0.34400
C103        C  0.49665536  0.95401473  0.26894048     0.01800
C104        C  0.48805840  0.95664402  0.29624241     0.07800
C105        C  0.50559785  0.94665602  0.31358847    -0.05300
H106        H  0.48793001  0.95973825  0.24952510     0.08400
H107        H  0.50524869  0.94525662  0.33647952     0.09600
Cu108      Cu  0.53928335  0.93356948  0.23596266     0.44200
Cu109      Cu  0.55533905  0.92148243  0.30891069     0.42000
Cu110      Cu  0.59385991  0.90191563  0.24951824     0.43900
N111        N  0.56163518  0.92126885  0.20406386    -0.34000
N112        N  0.58174134  0.90912253  0.20883064    -0.28200
C113        C  0.59202407  0.90345641  0.18377944    -0.04300
C114        C  0.57759861  0.91258054  0.16230089     0.07900
C115        C  0.55850896  0.92371910  0.17596383     0.01700
H116        H  0.60881300  0.89367963  0.18140906     0.09300
H117        H  0.54335210  0.93279422  0.16617435     0.08400
N118        N  0.60347764  0.90046402  0.29201178    -0.35400
N119        N  0.58968820  0.90732254  0.31347371    -0.27600
C120        C  0.60253530  0.90640070  0.33768047    -0.02800
C121        C  0.62555733  0.89885147  0.33108997     0.05800
C122        C  0.62540238  0.89514691  0.30198683     0.03900
H123        H  0.59593469  0.91211082  0.35830738     0.09000
H124        H  0.64056094  0.89053660  0.28875863     0.07800
N125        N  0.29248294  0.05329540  0.29578199    -0.26600
N126        N  0.30082090  0.05375770  0.26963900    -0.34400
C127        C  0.32403809  0.04763888  0.26998256     0.01800
C128        C  0.33089131  0.04315284  0.29770642     0.07800
C129        C  0.31037135  0.04696270  0.31357761    -0.05300
H130        H  0.33486167  0.04537543  0.25116461     0.08400
H131        H  0.30833793  0.04443178  0.33616395     0.09600
Cu132      Cu  0.28022309  0.05992963  0.23402652     0.44200
Cu133      Cu  0.25646539  0.05771025  0.30465914     0.42000
Cu134      Cu  0.21735866  0.05435464  0.24201110     0.43900
N135        N  0.25643445  0.06371011  0.20084428    -0.34000
N136        N  0.23321611  0.06117065  0.20353223    -0.28200
C137        C  0.22266177  0.06456923  0.17814042    -0.04300
C138        C  0.24017752  0.06954000  0.15866118     0.07900
C139        C  0.26136019  0.06881304  0.17375053     0.01700
H140        H  0.20367869  0.06372502  0.17422351     0.09300
H141        H  0.27906038  0.07159779  0.16561030     0.08400
N142        N  0.20579275  0.05249104  0.28350639    -0.35400
N143        N  0.21961829  0.05529507  0.30612953    -0.27600
C144        C  0.20627741  0.05354716  0.32957414    -0.02800
C145        C  0.18299239  0.04891540  0.32138538     0.05800
C146        C  0.18344104  0.04843330  0.29197276     0.03900
H147        H  0.21324809  0.05486226  0.35100691     0.09000
H148        H  0.16875172  0.04463060  0.27768449     0.07800
N149        N  0.97383479  0.57820880  0.27766814    -0.26600
N150        N  0.97652543  0.57113996  0.25092590    -0.34400
C151        C  0.97442199  0.54691280  0.24910044     0.01800
C152        C  0.97048727  0.53806162  0.27603534     0.07800
C153        C  0.97023068  0.55853040  0.29366787    -0.05300
H154        H  0.97530765  0.53651363  0.22943081     0.08400
H155        H  0.96753577  0.55914962  0.31639630     0.09600
Cu156      Cu  0.98308436  0.59455278  0.21792402     0.44200
Cu157      Cu  0.97407297  0.61456959  0.29010047     0.42000
Cu158      Cu  0.98304185  0.65867841  0.23303760     0.43900
N159        N  0.98969620  0.62034866  0.18747389    -0.34000
N160        N  0.98932476  0.64401909  0.19263029    -0.28200
C161        C  0.99314274  0.65565370  0.16811562    -0.04300
C162        C  0.99607792  0.63841588  0.14649900     0.07900
C163        C  0.99392948  0.61626188  0.15974139     0.01700
H164        H  0.99311983  0.67520265  0.16604252     0.09300
H165        H  0.99494665  0.59840820  0.14983229     0.08400
N166        N  0.97722184  0.66792368  0.27558244    -0.35400
N167        N  0.97401645  0.65205893  0.29600767    -0.27600
C168        C  0.97099594  0.66415518  0.32081328    -0.02800
C169        C  0.97242582  0.68879183  0.31586725     0.05800
C170        C  0.97636548  0.69050576  0.28696593     0.03900
H171        H  0.96824416  0.65560737  0.34104194     0.09000
H172        H  0.97844323  0.70698403  0.27506380     0.07800
N173        N  0.91620538  0.32568000  0.25461714    -0.26600
N174        N  0.91459712  0.33522908  0.22907910    -0.34400
C175        C  0.92000907  0.35883771  0.23081793     0.01800
C176        C  0.92493623  0.36476010  0.25889090     0.07800
C177        C  0.92249951  0.34319212  0.27342750    -0.05300
H178        H  0.91955604  0.37103612  0.21300743     0.08400
H179        H  0.92421131  0.34064205  0.29609655     0.09600
Cu180      Cu  0.90162460  0.31724934  0.19352386     0.44200
Cu181      Cu  0.90753329  0.28974063  0.26210941     0.42000
Cu182      Cu  0.87419328  0.25999583  0.20422021     0.43900
N183        N  0.88303553  0.29894778  0.16204497    -0.34000
N184        N  0.87266245  0.27793728  0.16596519    -0.28200
C185        C  0.86157041  0.27113686  0.14178272    -0.04300
C186        C  0.86508029  0.28883089  0.12171563     0.07900
C187        C  0.87873154  0.30619930  0.13535896     0.01700
H188        H  0.85176701  0.25452344  0.13900461     0.09300
H189        H  0.88482575  0.32304945  0.12666103     0.08400
N190        N  0.88050553  0.24496639  0.24361977    -0.35400
N191        N  0.89360291  0.25500997  0.26392394    -0.27600
C192        C  0.89447832  0.24005447  0.28622926    -0.02800
C193        C  0.88086062  0.21984824  0.27997004     0.05800
C194        C  0.87232438  0.22367647  0.25270352     0.03900
H195        H  0.90397149  0.24390213  0.30581427     0.09000
H196        H  0.86050072  0.21216910  0.24052056     0.07800
C197        C  0.87270198  0.07758744  0.41755266    -0.01800
C198        C  0.04012674  0.99385627  0.43888016    -0.01800
C199        C  0.94543951  0.83748713  0.44719563    -0.01800
C200        C  0.77986404  0.92452210  0.44250231    -0.01800
C201        C  0.88459304  0.87331696  0.46073823    -0.04800
C202        C  0.86984782  0.86611101  0.43802433     0.09400
C203        C  0.87825314  0.84762023  0.41949629    -0.02100
C204        C  0.90060310  0.83580260  0.42439235    -0.00400
C205        C  0.91794419  0.84622893  0.44366859    -0.04000
C206        C  0.90871692  0.86557389  0.46195249     0.03000
C207        C  0.84630971  0.87930241  0.43293461     0.09800
C208        C  0.86383805  0.84062410  0.39505150     0.35700
C209        C  0.92408557  0.87948778  0.48083962     0.39200
C210        C  0.84606914  0.90406130  0.42608453    -0.04400
C211        C  0.82434580  0.91686109  0.42246775     0.02800
C212        C  0.80245457  0.90746006  0.43336120    -0.04000
C213        C  0.80239132  0.88130478  0.43403867    -0.00200
C214        C  0.82421956  0.86752689  0.43433713    -0.02800
C215        C  0.86818531  0.91705330  0.42314562     0.36500
C216        C  0.78054540  0.86781387  0.43564004     0.40100
C217        C  0.82537213  0.93784825  0.40418741     0.39200
C218        C  0.82388783  0.84156813  0.43943279     0.36200
C219        C  0.87507002  0.88933617  0.48286002     0.36800
C220        C  0.90324257  0.81202998  0.41112076     0.40100
N221        N  0.82706588  0.95420859  0.38921944    -0.38000
N222        N  0.88528170  0.92834454  0.42142934    -0.39600
N223        N  0.76380227  0.85588080  0.43630602    -0.37300
N224        N  0.82356479  0.82090443  0.44359498    -0.39700
N225        N  0.85237140  0.83498595  0.37559672    -0.39500
N226        N  0.90383351  0.79296101  0.40038314    -0.37100
N227        N  0.93606708  0.89139102  0.49527363    -0.38200
N228        N  0.86778690  0.90179815  0.50093711    -0.39800
C229        C  0.02316369  0.92662493  0.45606905    -0.04800
C230        C  0.01011515  0.92037895  0.43168159     0.09400
C231        C  0.01246815  0.93433437  0.40725925    -0.02100
C232        C  0.02439553  0.95672641  0.40860677    -0.00400
C233        C  0.03524648  0.96539941  0.43469012    -0.04000
C234        C  0.03739357  0.94755899  0.45665855     0.03000
C235        C  0.99403456  0.89892802  0.43156838     0.09800
C236        C  0.00239519  0.92548542  0.38060353     0.35700
C237        C  0.05638468  0.94700126  0.47740549     0.39200
C238        C  0.96930418  0.90257467  0.43085196    -0.04400
C239        C  0.95418554  0.88252951  0.42923874     0.02800
C240        C  0.96272618  0.85863772  0.43682183    -0.04000
C241        C  0.98797898  0.85495442  0.43235384    -0.00200
C242        C  0.00327671  0.87506820  0.42979394    -0.02800
C243        C  0.95927116  0.92709161  0.43052066     0.36500
C244        C  0.99920502  0.83099903  0.43040314     0.40100
C245        C  0.93221176  0.88657557  0.41353088     0.39200
C246        C  0.02871568  0.87131958  0.42568522     0.36200
C247        C  0.02183299  0.91150415  0.48102068     0.36800
C248        C  0.02612899  0.96978093  0.38221775     0.40100
N249        N  0.91528943  0.88991496  0.39985688    -0.38000
N250        N  0.95126384  0.94661413  0.43036121    -0.39600
N251        N  0.00915633  0.81242509  0.42855663    -0.37300
N252        N  0.04897927  0.86840712  0.42233175    -0.39700
N253        N  0.99452129  0.91824819  0.35938930    -0.39500
N254        N  0.02734165  0.97856370  0.36010794    -0.37100
N255        N  0.07136448  0.94374327  0.49403181    -0.38200
N256        N  0.02089575  0.89980022  0.50116988    -0.39800
C257        C  0.81261405  0.98706007  0.44787537    -0.04800
C258        C  0.80281870  0.00092870  0.42568287     0.09400
C259        C  0.78289004  0.99201623  0.41098912    -0.02100
C260        C  0.77411657  0.96840018  0.41638864    -0.00400
C261        C  0.78610062  0.95233558  0.43622275    -0.04000
C262        C  0.80516489  0.96320740  0.45257554     0.03000
C263        C  0.81341858  0.02521064  0.41910047     0.09800
C264        C  0.77046753  0.00802401  0.39126242     0.35700
C265        C  0.81939850  0.94961906  0.47308456     0.39200
C266        C  0.82506107  0.02962132  0.39329756    -0.04400
C267        C  0.84160566  0.04880149  0.39158807     0.02800
C268        C  0.84897067  0.06168281  0.41676773    -0.04000
C269        C  0.83175388  0.06118174  0.43973252    -0.00200
C270        C  0.81415144  0.04322364  0.44029356    -0.02800
C271        C  0.82184112  0.01321478  0.36920766     0.36500
C272        C  0.82924242  0.08009776  0.46148790     0.40100
C273        C  0.85193433  0.05344782  0.36412407     0.39200
C274        C  0.79680819  0.04272533  0.46313010     0.36200
C275        C  0.83020940  0.99741831  0.46711580     0.36800
C276        C  0.75200897  0.96284582  0.40204461     0.40100
N277        N  0.85917606  0.05656884  0.34154362    -0.38000
N278        N  0.81938363  0.00023992  0.34986839    -0.39600
N279        N  0.82622049  0.09487966  0.47892332    -0.37300
N280        N  0.78301388  0.04225384  0.48125877    -0.39700
N281        N  0.76059011  0.02074678  0.37555450    -0.39500
N282        N  0.73414960  0.96054618  0.38995016    -0.37100
N283        N  0.83172202  0.93987370  0.48927884    -0.38200
N284        N  0.84322742  0.00515700  0.48394730    -0.39800
C285        C  0.97098420  0.00917706  0.43951039    -0.04800
C286        C  0.96800785  0.02632723  0.41801350     0.09400
C287        C  0.98741076  0.03166106  0.40075934    -0.02100
C288        C  0.01041419  0.02154814  0.40623682    -0.00400
C289        C  0.01466836  0.00542330  0.42985082    -0.04000
C290        C  0.99349782  0.99812999  0.44477368     0.03000
C291        C  0.94437895  0.03935015  0.41421142     0.09800
C292        C  0.98337644  0.04765300  0.37677418     0.35700
C293        C  0.99453845  0.98125167  0.46825753     0.39200
C294        C  0.94189529  0.06394678  0.42166272    -0.04400
C295        C  0.91959754  0.07604793  0.41936735     0.02800
C296        C  0.89776095  0.06306878  0.41346615    -0.04000
C297        C  0.90118443  0.03753516  0.40611656    -0.00200
C298        C  0.92437898  0.02682578  0.40440724    -0.02800
C299        C  0.96264985  0.07720928  0.43148071     0.36500
C300        C  0.88239739  0.02005996  0.40366589     0.40100
C301        C  0.92034102  0.10235367  0.42204119     0.39200
C302        C  0.92779970  0.00215765  0.39333705     0.36200
C303        C  0.95090594  0.00390625  0.45764863     0.36800
C304        C  0.02824742  0.02718434  0.38540904     0.40100
N305        N  0.92287308  0.12315824  0.42359002    -0.38000
N306        N  0.97897230  0.08814302  0.43908131    -0.39600
N307        N  0.86957730  0.00383628  0.40255050    -0.37300
N308        N  0.93047881  0.98260130  0.38438748    -0.39700
N309        N  0.98007907  0.06040218  0.35776143    -0.39500
N310        N  0.04148009  0.03204780  0.36772128    -0.37100
N311        N  0.99435349  0.96847986  0.48756687    -0.38200
N312        N  0.93507835  0.99962649  0.47224711    -0.39800
C313        C  0.86667196  0.18434050  0.34665345    -0.04800
C314        C  0.86768311  0.16011936  0.33627312     0.09400
C315        C  0.87044548  0.15574497  0.30680853    -0.02100
C316        C  0.87516632  0.17505331  0.28846720    -0.00400
C317        C  0.87537145  0.19928904  0.29905407    -0.04000
C318        C  0.87007291  0.20382075  0.32805509     0.03000
C319        C  0.86789757  0.13897423  0.35611975     0.09800
C320        C  0.86874100  0.13113373  0.29546076     0.35700
C321        C  0.86748215  0.22857708  0.33886943     0.39200
C322        C  0.84734361  0.13223550  0.37062863    -0.04400
C323        C  0.84814598  0.11244358  0.38975397     0.02800
C324        C  0.86954266  0.09763743  0.39318512    -0.04000
C325        C  0.88741672  0.10164012  0.37196267    -0.00200
C326        C  0.88821718  0.12382269  0.35764449    -0.02800
C327        C  0.82533355  0.14601763  0.36607124     0.36500
C328        C  0.90301237  0.08255424  0.36055702     0.40100
C329        C  0.82620836  0.10802968  0.40456693     0.39200
C330        C  0.90992088  0.13048362  0.34323210     0.36200
C331        C  0.86190861  0.18960141  0.37635433     0.36800
C332        C  0.88111192  0.16954729  0.25909926     0.40100
N333        N  0.80756401  0.10584485  0.41446405    -0.38000
N334        N  0.80782061  0.15700635  0.36243991    -0.39600
N335        N  0.91546658  0.06776216  0.35063044    -0.37300
N336        N  0.92719836  0.13578632  0.33178513    -0.39700
N337        N  0.86734576  0.11146716  0.28662309    -0.39500
N338        N  0.88592787  0.16490733  0.23574662    -0.37100
N339        N  0.86539371  0.24828099  0.34757842    -0.38200
N340        N  0.85769549  0.19483035  0.39970998    -0.39800
C341        C  0.96470816  0.76991716  0.42384329    -0.04800
C342        C  0.96232701  0.77097333  0.39426887     0.09400
C343        C  0.95696455  0.79328760  0.38158182    -0.02100
C344        C  0.95257251  0.81441863  0.39836249    -0.00400
C345        C  0.95221814  0.81359112  0.42899865    -0.04000
C346        C  0.96074336  0.79090839  0.44111791     0.03000
C347        C  0.96594608  0.74860551  0.37606538     0.09800
C348        C  0.95509285  0.79423962  0.35076700     0.35700
C349        C  0.96881622  0.78862434  0.47034391     0.39200
C350        C  0.94793056  0.73111888  0.37402392    -0.04400
C351        C  0.95029714  0.71124128  0.35489169     0.02800
C352        C  0.97046207  0.70904945  0.33710025    -0.04000
C353        C  0.98872916  0.72632888  0.33963572    -0.00200
C354        C  0.98672949  0.74565654  0.35956815    -0.02800
C355        C  0.92674016  0.73382573  0.39133716     0.36500
C356        C  0.00972146  0.72419442  0.32190764     0.40100
C357        C  0.93141582  0.69365976  0.35273951     0.39200
C358        C  0.00612169  0.76249380  0.36331638     0.36200
C359        C  0.97233281  0.74704687  0.43644337     0.36800
C360        C  0.94783906  0.83653354  0.38282694     0.40100
N361        N  0.91632864  0.67965031  0.35114646    -0.38000
N362        N  0.90988796  0.73591176  0.40524669    -0.39600
N363        N  0.02638118  0.72262006  0.30760457    -0.37300
N364        N  0.02164343  0.77583565  0.36646460    -0.39700
N365        N  0.95360027  0.79488472  0.32625613    -0.39500
N366        N  0.94466100  0.85299066  0.36818687    -0.37100
N367        N  0.97567182  0.78589219  0.49336383    -0.38200
N368        N  0.97843981  0.72886644  0.44644849    -0.39800
C369        C  0.94057279  0.48111747  0.30313941    -0.04800
C370        C  0.95318809  0.46278677  0.28784188     0.09400
C371        C  0.97357742  0.46897995  0.27232473    -0.02100
C372        C  0.98031874  0.49343987  0.27052844    -0.00400
C373        C  0.96617335  0.51215572  0.28322003    -0.04000
C374        C  0.94678703  0.50575894  0.30054653     0.03000
C375        C  0.94361228  0.43755844  0.28505715     0.09800
C376        C  0.98706055  0.45026722  0.25701883     0.35700
C377        C  0.93218837  0.52442582  0.31432534     0.39200
C378        C  0.92303340  0.43356197  0.26831424    -0.04400
C379        C  0.91601455  0.40971239  0.26154565     0.02800
C380        C  0.93005732  0.38953848  0.27043204    -0.04000
C381        C  0.94981779  0.39350084  0.28865164    -0.00200
C382        C  0.95628916  0.41743624  0.29633185    -0.02800
C383        C  0.90954487  0.45404883  0.25699467     0.36500
C384        C  0.96447135  0.37314544  0.29806008     0.40100
C385        C  0.89420874  0.40606206  0.24539628     0.39200
C386        C  0.97655015  0.42144562  0.31500330     0.36200
C387        C  0.92049174  0.47466426  0.32054131     0.36800
C388        C  0.00191391  0.49924557  0.25548748     0.40100
N389        N  0.87681505  0.40322803  0.23251429    -0.38000
N390        N  0.89875589  0.47040030  0.24808882    -0.39600
N391        N  0.97625481  0.35693974  0.30550768    -0.37300
N392        N  0.99276409  0.42465642  0.32982254    -0.39700
N393        N  0.99782622  0.43529894  0.24492482    -0.39500
N394        N  0.01915553  0.50378928  0.24349172    -0.37100
N395        N  0.92045872  0.53922749  0.32539120    -0.38200
N396        N  0.90439092  0.46956005  0.33430753    -0.39800
C397        C  0.11945405  0.04510480  0.34912231    -0.04800
C398        C  0.12251590  0.02891115  0.37187671     0.09400
C399        C  0.14566774  0.02069596  0.37933704    -0.02100
C400        C  0.16542263  0.02720558  0.36300524    -0.00400
C401        C  0.16239366  0.04305834  0.33976800    -0.04000
C402        C  0.13932866  0.05250862  0.33347911     0.03000
C403        C  0.10140546  0.02016822  0.38790806     0.09800
C404        C  0.14926327  0.00539205  0.40388261     0.35700
C405        C  0.13596746  0.07038914  0.31139019     0.39200
C406        C  0.09443030  0.99592028  0.38508994    -0.04400
C407        C  0.07660437  0.98662004  0.40273866     0.02800
C408        C  0.06179542  0.00266789  0.42008256    -0.04000
C409        C  0.06951434  0.02753087  0.42228812    -0.00200
C410        C  0.08953849  0.03561722  0.40725959    -0.02800
C411        C  0.10673934  0.97999902  0.36481173     0.36500
C412        C  0.05703951  0.04588482  0.43916160     0.40100
C413        C  0.07725774  0.96036213  0.40547182     0.39200
C414        C  0.09820050  0.06012540  0.41180635     0.36200
C415        C  0.09582851  0.05417495  0.34168258     0.36800
C416        C  0.18859949  0.01650052  0.36958651     0.40100
N417        N  0.07864923  0.93942051  0.40732188    -0.38000
N418        N  0.11658884  0.96731935  0.34874994    -0.39600
N419        N  0.04857724  0.06215250  0.45153950    -0.37300
N420        N  0.10518601  0.07958449  0.41544837    -0.39700
N421        N  0.15255789  0.99320718  0.42338413    -0.39500
N422        N  0.20700901  0.00787076  0.37501163    -0.37100
N423        N  0.13319694  0.08469512  0.29384351    -0.38200
N424        N  0.07712984  0.06171090  0.33557920    -0.39800
C425        C  0.67415175  0.92084115  0.38161522    -0.04800
C426        C  0.69075515  0.90126894  0.38005945     0.09400
C427        C  0.68495819  0.88007500  0.36445825    -0.02100
C428        C  0.66321217  0.87894121  0.34932045    -0.00400
C429        C  0.64709068  0.89901914  0.34968606    -0.04000
C430        C  0.65249110  0.91982828  0.36637036     0.03000
C431        C  0.71414360  0.90298123  0.39544054     0.09800
C432        C  0.70130746  0.85934568  0.36427895     0.35700
C433        C  0.63633954  0.94074123  0.36708412     0.39200
C434        C  0.71505139  0.90068141  0.42496420    -0.04400
C435        C  0.73645393  0.90480469  0.44006400     0.02800
C436        C  0.75714822  0.91417813  0.42594425    -0.04000
C437        C  0.75682269  0.91149471  0.39548730    -0.00200
C438        C  0.73532709  0.90669750  0.38058909    -0.02800
C439        C  0.69379793  0.89321308  0.43975802     0.36500
C440        C  0.77784072  0.91459109  0.37837512     0.38100
C441        C  0.73694086  0.89603450  0.46903868     0.39200
C442        C  0.73462062  0.90712432  0.34972726     0.36200
C443        C  0.67930606  0.94217403  0.39890280     0.36800
C444        C  0.65719607  0.85685592  0.33387265     0.40100
N445        N  0.73662986  0.88856099  0.49189392    -0.38000
N446        N  0.67687369  0.88719947  0.45143389    -0.39600
N447        N  0.79356713  0.91626634  0.36281636    -0.37300
N448        N  0.73399692  0.90750029  0.32515748    -0.39700
N449        N  0.71438517  0.84283282  0.36415828    -0.39500
N450        N  0.65234367  0.83922589  0.32160680    -0.37100
N451        N  0.62353280  0.95747118  0.36782928    -0.38200
N452        N  0.68295633  0.95924294  0.41279645    -0.39800
C453        C  0.44169039  0.00017325  0.32824106    -0.04800
C454        C  0.42126861  0.99357526  0.31250228     0.09400
C455        C  0.42228833  0.97326141  0.29385541    -0.02100
C456        C  0.44380916  0.96011342  0.29024518    -0.00400
C457        C  0.46475649  0.96783207  0.30426460    -0.04000
C458        C  0.46351118  0.98754498  0.32386316     0.03000
C459        C  0.39898449  0.00881871  0.31378478     0.09800
C460        C  0.40135574  0.96644208  0.27751275     0.35700
C461        C  0.48485724  0.99575929  0.33831925     0.39200
C462        C  0.39758263  0.03076594  0.29874728    -0.04400
C463        C  0.37552889  0.04308275  0.29561654     0.02800
C464        C  0.35453435  0.03309607  0.30668133    -0.04000
C465        C  0.35629665  0.01194403  0.32341757    -0.00200
C466        C  0.37855991  0.00006064  0.32721633    -0.02800
C467        C  0.41865973  0.04003663  0.28525757     0.36500
C468        C  0.33515926  0.00124536  0.33509126     0.40100
C469        C  0.37446866  0.06593715  0.28062262     0.39200
C470        C  0.38036561  0.97810550  0.34383608     0.36200
C471        C  0.44031454  0.02039492  0.34831778     0.36800
C472        C  0.44430696  0.93847030  0.27221625     0.40100
N473        N  0.37365377  0.08414569  0.26864176    -0.38000
N474        N  0.43548263  0.04739015  0.27450677    -0.39600
N475        N  0.31838834  0.99254606  0.34446195    -0.37300
N476        N  0.38187727  0.96055955  0.35701864    -0.39700
N477        N  0.38465901  0.96107732  0.26446610    -0.39500
N478        N  0.44466671  0.92114567  0.25796032    -0.37100
N479        N  0.50188634  0.00239283  0.34981343    -0.38200
N480        N  0.43915965  0.03654280  0.36432035    -0.39800
C481        C  0.92480751  0.85947496  0.58434659    -0.04800
C482        C  0.93524521  0.83818729  0.57259716     0.09400
C483        C  0.93709935  0.81741469  0.58976582    -0.02100
C484        C  0.92945057  0.81859160  0.61842475    -0.00400
C485        C  0.92280521  0.84171495  0.63108810    -0.04000
C486        C  0.91373244  0.85821622  0.61086832     0.03000
C487        C  0.93973671  0.83613279  0.54120538     0.09800
C488        C  0.94733611  0.79502803  0.57808999     0.35700
C489        C  0.88818953  0.85796604  0.60736736     0.39200
C490        C  0.96013144  0.84599159  0.52931239    -0.04400
C491        C  0.96471863  0.84332077  0.49979498     0.02800
C492        C  0.94736557  0.83285405  0.48072180    -0.04000
C493        C  0.92864079  0.81990734  0.49431936    -0.00200
C494        C  0.92432720  0.82259424  0.52372968    -0.02800
C495        C  0.97688403  0.85847186  0.54790203     0.36500
C496        C  0.91399158  0.80281226  0.47863545     0.40100
C497        C  0.98918303  0.84673475  0.49199337     0.39200
C498        C  0.90352500  0.81164539  0.53610210     0.36200
C499        C  0.92043377  0.88077017  0.56727569     0.36800
C500        C  0.92652392  0.79572819  0.63273518     0.40100
N501        N  0.00946378  0.84875704  0.48869627    -0.38000
N502        N  0.99016475  0.86845537  0.56270676    -0.39600
N503        N  0.90216737  0.78849558  0.46748417    -0.37300
N504        N  0.88702564  0.80291743  0.54608084    -0.39700
N505        N  0.95565155  0.77727037  0.56873637    -0.39500
N506        N  0.92436394  0.77711007  0.64341870    -0.37100
N507        N  0.86805515  0.85565405  0.60296342    -0.38200
N508        N  0.91678733  0.89807263  0.55416304    -0.39800
C509        C  0.78926713  0.95674740  0.58024651    -0.04800
C510        C  0.76910686  0.94700331  0.56704780     0.09400
C511        C  0.74875889  0.94327255  0.58369623    -0.02100
C512        C  0.74900923  0.94815677  0.61350569    -0.00400
C513        C  0.77106380  0.95254196  0.62837942    -0.04000
C514        C  0.79114806  0.95773906  0.61019388     0.03000
C515        C  0.77011500  0.93953228  0.53594396     0.09800
C516        C  0.72749216  0.93378143  0.57013362     0.35700
C517        C  0.81514152  0.96127477  0.62104942     0.39200
C518        C  0.78537145  0.92038188  0.52697115    -0.04400
C519        C  0.78687809  0.91307876  0.49798341     0.02800
C520        C  0.77451118  0.92637510  0.47607514    -0.04000
C521        C  0.75757043  0.94458643  0.48635894    -0.00200
C522        C  0.75630061  0.95158778  0.51543464    -0.02800
C523        C  0.80105024  0.90859855  0.54746447     0.36500
C524        C  0.74007026  0.95586929  0.46775116     0.40100
C525        C  0.80107411  0.89131858  0.49312555     0.39200
C526        C  0.74138592  0.97221275  0.52416920     0.36200
C527        C  0.80890212  0.96450219  0.56270143     0.36800
C528        C  0.72601861  0.94975711  0.62711364     0.40100
N529        N  0.81259367  0.87365696  0.49352235    -0.38000
N530        N  0.81450731  0.89882573  0.56229818    -0.39600
N531        N  0.72504441  0.96517812  0.45468395    -0.37300
N532        N  0.72954940  0.98867103  0.53110153    -0.39700
N533        N  0.71056459  0.92622989  0.55925256    -0.39500
N534        N  0.70710674  0.95139612  0.63668930    -0.37100
N535        N  0.83486164  0.96329520  0.62790529    -0.38200
N536        N  0.82452643  0.97071395  0.54882231    -0.39800
C537        C  0.82526891  0.90396142  0.65080140    -0.04800
C538        C  0.83300966  0.89769531  0.67817255     0.09400
C539        C  0.81793676  0.90391483  0.70119840    -0.02100
C540        C  0.79773064  0.91964400  0.69693051    -0.00400
C541        C  0.79203557  0.92841781  0.66902819    -0.04000
C542        C  0.80277397  0.91432387  0.64684137     0.03000
C543        C  0.85526792  0.88234484  0.68168639     0.09800
C544        C  0.82376599  0.89508484  0.72932068     0.35700
C545        C  0.78936484  0.90505762  0.62273283     0.39200
C546        C  0.87543808  0.89119604  0.69608849    -0.04400
C547        C  0.89705410  0.87763058  0.69567208     0.02800
C548        C  0.90014259  0.85750528  0.67620721    -0.04000
C549        C  0.87860633  0.84600694  0.66767896    -0.00200
C550        C  0.85641986  0.85859217  0.67005528    -0.02800
C551        C  0.87476306  0.91496804  0.70976741     0.36500
C552        C  0.87847368  0.82106263  0.65754664     0.40100
C553        C  0.91534844  0.88418497  0.71617412     0.39200
C554        C  0.83471064  0.84735312  0.65986749     0.36200
C555        C  0.84039373  0.90205331  0.62621437     0.36800
C556        C  0.78370024  0.92655190  0.72157580     0.40100
N557        N  0.92925896  0.88990745  0.73314194    -0.38000
N558        N  0.87497355  0.93394324  0.72067406    -0.39600
N559        N  0.87658332  0.80113889  0.64980270    -0.37300
N560        N  0.81736325  0.83850665  0.65171878    -0.39700
N561        N  0.82851066  0.88818763  0.75180117    -0.39500
N562        N  0.77305174  0.93158684  0.74184843    -0.37100
N563        N  0.77845494  0.89673803  0.60416494    -0.38200
N564        N  0.85132583  0.90271456  0.60553416    -0.39800
C565        C  0.06751022  0.01625013  0.58109379    -0.04800
C566        C  0.05632215  0.99957115  0.56280124     0.09400
C567        C  0.04665154  0.97872863  0.57437365    -0.02100
C568        C  0.04581537  0.97618355  0.60404597    -0.00400
C569        C  0.04868244  0.99718762  0.62249718    -0.04000
C570        C  0.06434076  0.01478735  0.61095422     0.03000
C571        C  0.05477181  0.00348798  0.53144537     0.09800
C572        C  0.03714377  0.95993298  0.55577945     0.35700
C573        C  0.07678897  0.03219975  0.62861069     0.39200
C574        C  0.07353947  0.99666838  0.51346626    -0.04400
C575        C  0.07004660  0.99608072  0.48356702     0.02800
C576        C  0.04692579  0.00143477  0.47118904    -0.04000
C577        C  0.03144952  0.01537086  0.48991040    -0.00200
C578        C  0.03422036  0.01400514  0.51961205    -0.02800
C579        C  0.09614373  0.98899131  0.52596870     0.36500
C580        C  0.01445177  0.03371859  0.48034153     0.40100
C581        C  0.09063615  0.98889464  0.46683400     0.39200
C582        C  0.01591355  0.02414470  0.53805781     0.36200
C583        C  0.08083439  0.03588836  0.56900088     0.36800
C584        C  0.04398719  0.95145183  0.61410585     0.40100
N585        N  0.10787391  0.98319224  0.45495894    -0.38000
N586        N  0.11411637  0.98290637  0.53602294    -0.39600
N587        N  0.00082608  0.04878200  0.47408455    -0.37300
N588        N  0.00094828  0.03248499  0.55203477    -0.39700
N589        N  0.02921986  0.94497260  0.54121794    -0.39500
N590        N  0.04258806  0.93147775  0.62122891    -0.37100
N591        N  0.08736513  0.04652067  0.64144780    -0.38200
N592        N  0.09130827  0.05157700  0.55920951    -0.39800
C593        C  0.99041379  0.94839246  0.63996206    -0.04800
C594        C  0.99079962  0.93492379  0.66500592     0.09400
C595        C  0.00556904  0.94280082  0.68754510    -0.02100
C596        C  0.02233502  0.96149185  0.68350079    -0.00400
C597        C  0.02071147  0.97684128  0.65895517    -0.04000
C598        C  0.00186420  0.97086427  0.63898439     0.03000
C599        C  0.97413343  0.91384681  0.66775391     0.09800
C600        C  0.00265828  0.93254069  0.71554570     0.35700
C601        C  0.99530924  0.98606755  0.61511260     0.39200
C602        C  0.98186103  0.89082750  0.67689175    -0.04400
C603        C  0.96495083  0.87281854  0.68189682     0.02800
C604        C  0.94258625  0.87275245  0.66649814    -0.04000
C605        C  0.93544520  0.89643431  0.65618472    -0.00200
C606        C  0.94986613  0.91691845  0.66097852    -0.02800
C607        C  0.00689205  0.88556495  0.68220199     0.36500
C608        C  0.91241071  0.90184250  0.64381818     0.40100
C609        C  0.96939588  0.85855672  0.70712401     0.39200
C610        C  0.93951411  0.94135931  0.65982364     0.36200
C611        C  0.97851215  0.93889094  0.61462066     0.36800
C612        C  0.03970293  0.96454006  0.70606013     0.40100
N613        N  0.97315614  0.84779770  0.72766802    -0.38000
N614        N  0.02685826  0.88125464  0.68639385    -0.39600
N615        N  0.89440383  0.90820757  0.63423957    -0.37300
N616        N  0.93117749  0.96073911  0.65926862    -0.39700
N617        N  0.00021464  0.92449261  0.73788597    -0.39500
N618        N  0.05286090  0.96586941  0.72505624    -0.37100
N619        N  0.98944647  0.99706368  0.59543634    -0.38200
N620        N  0.96912845  0.93134410  0.59445500    -0.39800
C621        C  0.88040838  0.11993326  0.48680890    -0.04800
C622        C  0.88182987  0.10237038  0.50804502     0.09400
C623        C  0.88167367  0.07773686  0.50023962    -0.02100
C624        C  0.88013832  0.07050077  0.47156524    -0.00400
C625        C  0.87607298  0.08784028  0.44922618    -0.04000
C626        C  0.87626943  0.11308612  0.45798928     0.03000
C627        C  0.88388579  0.10917854  0.53892458     0.09800
C628        C  0.88332550  0.05923156  0.52189911     0.35700
C629        C  0.87348385  0.13295125  0.43862375     0.39200
C630        C  0.86473046  0.12016098  0.55359395    -0.04400
C631        C  0.86406361  0.11964207  0.58369399     0.02800
C632        C  0.88210630  0.10654618  0.59950654    -0.04000
C633        C  0.90405160  0.10226490  0.58412058    -0.00200
C634        C  0.90436589  0.10243530  0.55420092    -0.02800
C635        C  0.84459135  0.13005506  0.53769166     0.36500
C636        C  0.92728589  0.10304441  0.59772042     0.40100
C637        C  0.84385391  0.13177734  0.59703131     0.39200
C638        C  0.92605410  0.09614415  0.53878400     0.36200
C639        C  0.88406961  0.14524615  0.49472584     0.36800
C640        C  0.88253300  0.04453914  0.46628393     0.40100
N641        N  0.82742970  0.14251964  0.60560261    -0.38000
N642        N  0.82855680  0.13805985  0.52512426    -0.39600
N643        N  0.94589160  0.10551219  0.60799309    -0.37300
N644        N  0.94327051  0.09120929  0.52642117    -0.39700
N645        N  0.88485869  0.04376334  0.53816081    -0.39500
N646        N  0.88557977  0.02373546  0.46448449    -0.37100
N647        N  0.87213728  0.15009112  0.42479827    -0.38200
N648        N  0.88714991  0.16536070  0.50101708    -0.39800
C649        C  0.84000792  0.05527544  0.67605080    -0.04800
C650        C  0.82747208  0.04231013  0.65517120     0.09400
C651        C  0.82936035  0.04900432  0.62668237    -0.02100
C652        C  0.84361253  0.06876089  0.61874332    -0.00400
C653        C  0.85888914  0.08081124  0.63926901    -0.04000
C654        C  0.85646454  0.07307821  0.66840031     0.03000
C655        C  0.81290073  0.02078860  0.66285896     0.09800
C656        C  0.81713748  0.03454730  0.60502093     0.35700
C657        C  0.86951245  0.08423708  0.69178680     0.39200
C658        C  0.78824091  0.02072134  0.65761723    -0.04400
C659        C  0.77561389  0.99880270  0.65891681     0.02800
C660        C  0.78693675  0.97679423  0.66896451    -0.04000
C661        C  0.81018494  0.97976838  0.68132448    -0.00200
C662        C  0.82380281  0.00020075  0.67493204    -0.02800
C663        C  0.77600445  0.04327509  0.65021296     0.36500
C664        C  0.81922059  0.96562546  0.70465568     0.40100
C665        C  0.75066821  0.99971877  0.65069752     0.39200
C666        C  0.84938033  0.99958026  0.68022292     0.36200
C667        C  0.83576580  0.05026975  0.70584442     0.36800
C668        C  0.84302150  0.07357831  0.58866685     0.40100
N669        N  0.73077199  0.00179781  0.64442933    -0.38000
N670        N  0.76631133  0.06129705  0.64443631    -0.39600
N671        N  0.82748248  0.95649747  0.72450123    -0.37300
N672        N  0.86973976  0.99902608  0.68431845    -0.39700
N673        N  0.80740117  0.02310700  0.58784969    -0.39500
N674        N  0.84080717  0.07497984  0.56427961    -0.37100
N675        N  0.87871441  0.09246706  0.71169854    -0.38200
N676        N  0.83243327  0.04625145  0.72953289    -0.39800
C677        C  0.98570229  0.04774962  0.63221287    -0.04800
C678        C  0.97087239  0.04750300  0.65604959     0.09400
C679        C  0.97880849  0.03550836  0.68044138    -0.02100
C680        C  0.00077374  0.02242969  0.68036071    -0.00400
C681        C  0.01568807  0.02097205  0.65536928    -0.04000
C682        C  0.00874843  0.03714276  0.63302915     0.03000
C683        C  0.94664684  0.05953009  0.65476301     0.09800
C684        C  0.96378913  0.03590314  0.70546963     0.35700
C685        C  0.02519193  0.04780515  0.61370530     0.39200
C686        C  0.92887470  0.04865223  0.63851257    -0.04400
C687        C  0.90779018  0.06164049  0.63159654     0.02800
C688        C  0.90253719  0.08578458  0.64313857    -0.04000
C689        C  0.91987040  0.09476291  0.66341964    -0.00200
C690        C  0.94196459  0.08217872  0.66788589    -0.02800
C691        C  0.93289321  0.02389928  0.62787051     0.36500
C692        C  0.91631711  0.11638552  0.68071541     0.40100
C693        C  0.89249525  0.04909216  0.61159444     0.39200
C694        C  0.96041063  0.09281851  0.68571064     0.36200
C695        C  0.97703554  0.05828773  0.60590550     0.36800
C696        C  0.00836428  0.01245492  0.70734431     0.40100
N697        N  0.88163853  0.03677985  0.59639125    -0.38000
N698        N  0.93602357  0.00427972  0.61933355    -0.39600
N699        N  0.91505715  0.13303834  0.69597483    -0.37300
N700        N  0.97509187  0.10121556  0.69995861    -0.39700
N701        N  0.95186909  0.03630343  0.72543514    -0.39500
N702        N  0.01346892  0.00593441  0.72988043    -0.37100
N703        N  0.03641265  0.05894479  0.59820225    -0.38200
N704        N  0.97043445  0.06573980  0.58433570    -0.39800
C705        C  0.21438972  0.09479386  0.02329811    -0.04800
C706        C  0.23425542  0.08462617  0.03752555     0.09400
C707        C  0.25439617  0.07667276  0.02205578    -0.02100
C708        C  0.25448915  0.07827033  0.99223947    -0.00400
C709        C  0.23436124  0.08804035  0.97770898    -0.04000
C710        C  0.21439767  0.09649824  0.99345929     0.03000
C711        C  0.23396773  0.08174666  0.06891811     0.09800
C712        C  0.27494436  0.06654780  0.03695965     0.35700
C713        C  0.19401630  0.10745007  0.97909579     0.39200
C714        C  0.22451469  0.06060377  0.08063708    -0.04400
C715        C  0.22600905  0.05685286  0.11012267     0.02800
C716        C  0.23717357  0.07419082  0.12794399    -0.04000
C717        C  0.24621619  0.09560008  0.11617199    -0.00200
C718        C  0.24442857  0.09942882  0.08672518    -0.02800
C719        C  0.21380223  0.04243916  0.06216923     0.36500
C720        C  0.25720171  0.11381906  0.13432350     0.40100
C721        C  0.21711067  0.03457522  0.12184960     0.39200
C722        C  0.25351659  0.12145021  0.07458282     0.36200
C723        C  0.19400370  0.10356534  0.03949181     0.36800
C724        C  0.27500416  0.06886510  0.97671322     0.40100
N725        N  0.21003932  0.01678990  0.13119080    -0.38000
N726        N  0.20528656  0.02796302  0.04739844    -0.39600
N727        N  0.26604456  0.12833842  0.14874878    -0.37300
N728        N  0.26068700  0.13901508  0.06481055    -0.39700
N729        N  0.29129522  0.05854533  0.04894523    -0.39500
N730        N  0.29148110  0.06138477  0.96452651    -0.37100
N731        N  0.17773705  0.11616871  0.96765481    -0.38200
N732        N  0.17779126  0.11059735  0.05248163    -0.39800
C733        C  0.13091221  0.04073267  0.72735286    -0.04800
C734        C  0.11574939  0.02169542  0.73495512     0.09400
C735        C  0.11979222  0.00947124  0.76074756    -0.02100
C736        C  0.13888487  0.01620118  0.77874190    -0.00400
C737        C  0.15413188  0.03510607  0.77095592    -0.04000
C738        C  0.14987460  0.04752076  0.74535079     0.03000
C739        C  0.09510560  0.01530885  0.71599393     0.09800
C740        C  0.10433995  0.98994340  0.76875101     0.35700
C741        C  0.16439362  0.06802052  0.73798513     0.39200
C742        C  0.09625391  0.99481559  0.69797668    -0.04400
C743        C  0.07770132  0.99002582  0.67812735     0.02800
C744        C  0.05719113  0.00604185  0.67553707    -0.04000
C745        C  0.05851045  0.02848416  0.69203605    -0.00200
C746        C  0.07568690  0.03146956  0.71377280    -0.02800
C747        C  0.11674582  0.97836643  0.70017461     0.36500
C748        C  0.04565656  0.05072963  0.68472598     0.40100
C749        C  0.08082638  0.96826440  0.66084143     0.39200
C750        C  0.07412279  0.05224423  0.73323079     0.36200
C751        C  0.12699158  0.05360035  0.70102507     0.36800
C752        C  0.14310940  0.00333014  0.80501515     0.40100
N753        N  0.08575901  0.95056361  0.64849336    -0.38000
N754        N  0.13298462  0.96520673  0.70211737    -0.39600
N755        N  0.03611457  0.06897951  0.67949973    -0.37300
N756        N  0.07288105  0.06874254  0.74872715    -0.39700
N757        N  0.09217427  0.97423369  0.77518582    -0.39500
N758        N  0.14649651  0.99315070  0.82603656    -0.37100
N759        N  0.17582142  0.08445945  0.73208478    -0.38200
N760        N  0.12418080  0.06427989  0.68025793    -0.39800
C761        C  0.55968345  0.90045018  0.02558391    -0.04800
C762        C  0.58120500  0.90643992  0.03943726     0.09400
C763        C  0.60067028  0.91427798  0.02341197    -0.02100
C764        C  0.59792215  0.91843768  0.99408841    -0.00400
C765        C  0.57589827  0.91382658  0.98045830    -0.04000
C766        C  0.55711111  0.90392088  0.99611157     0.03000
C767        C  0.58229825  0.90774576  0.07114740     0.09800
C768        C  0.62326233  0.91888952  0.03745900     0.35700
C769        C  0.53505614  0.89741214  0.98190652     0.39200
C770        C  0.58481763  0.88650613  0.08737486    -0.04400
C771        C  0.58433804  0.88807203  0.11733437     0.02800
C772        C  0.58120500  0.91092188  0.13112034    -0.04000
C773        C  0.57989947  0.93224522  0.11479538    -0.00200
C774        C  0.58023922  0.93063645  0.08494597    -0.02800
C775        C  0.58748136  0.86305122  0.07318375     0.36500
C776        C  0.57874721  0.95596768  0.12868304     0.40100
C777        C  0.58623710  0.86607995  0.13384635     0.39200
C778        C  0.57803500  0.95257340  0.06830360     0.36200
C779        C  0.53992009  0.89148826  0.04184388     0.36800
C780        C  0.61719565  0.92918024  0.97855855     0.40100
N781        N  0.58785448  0.84854176  0.14703502    -0.38000
N782        N  0.58951849  0.84431759  0.06186610    -0.39600
N783        N  0.57794828  0.97491557  0.13968494    -0.37300
N784        N  0.57635453  0.96999732  0.05492380    -0.39700
N785        N  0.64125971  0.92247090  0.04876385    -0.39500
N786        N  0.63254320  0.93793408  0.96628909    -0.37100
N787        N  0.51750333  0.89217879  0.97051926    -0.38200
N788        N  0.52418707  0.88424283  0.05479660    -0.39800
C789        C  0.66356041  0.93829277  0.71946136    -0.04800
C790        C  0.68665567  0.93945416  0.73136182     0.09400
C791        C  0.68961930  0.93825569  0.76114266    -0.02100
C792        C  0.66961028  0.93760398  0.77899751    -0.00400
C793        C  0.64636735  0.93663483  0.76716072    -0.04000
C794        C  0.64356416  0.93626663  0.73722183     0.03000
C795        C  0.70800063  0.94268425  0.71285497     0.09800
C796        C  0.71336654  0.93804160  0.77356564     0.35700
C797        C  0.62015685  0.93324514  0.72451844     0.39200
C798        C  0.72054746  0.96439738  0.71443420    -0.04400
C799        C  0.74316905  0.96603033  0.70184946     0.02800
C800        C  0.75133944  0.94823094  0.68092255    -0.04000
C801        C  0.73807034  0.92598651  0.68008605    -0.00200
C802        C  0.71714944  0.92329197  0.69639901    -0.02800
C803        C  0.71066357  0.98485042  0.73071667     0.36500
C804        C  0.74540912  0.90482127  0.66355296     0.40100
C805        C  0.75854368  0.98381496  0.71532701     0.39200
C806        C  0.70491584  0.90022812  0.69653551     0.36200
C807        C  0.66029666  0.93954339  0.68892739     0.36800
C808        C  0.67317256  0.93932041  0.80952926     0.40100
N809        N  0.77022506  0.99803255  0.72692231    -0.38000
N810        N  0.70276207  0.00109682  0.74366045    -0.39600
N811        N  0.74927403  0.88649566  0.65196752    -0.37300
N812        N  0.69514001  0.88190480  0.69668104    -0.39700
N813        N  0.73218696  0.93790565  0.78375544    -0.39500
N814        N  0.67621014  0.94078568  0.83383937    -0.37100
N815        N  0.60150078  0.93074818  0.71437842    -0.38200
N816        N  0.65751118  0.94048921  0.66458605    -0.39800
C817        C  0.43133640  0.01233897  0.79601230    -0.04800
C818        C  0.42204443  0.03104679  0.81371081     0.09400
C819        C  0.43656763  0.04160794  0.83491497    -0.02100
C820        C  0.45998997  0.03273125  0.83929113    -0.00400
C821        C  0.46882530  0.01282748  0.82291008    -0.04000
C822        C  0.45458855  0.00302748  0.80075529     0.03000
C823        C  0.39619555  0.03779018  0.81225706     0.09800
C824        C  0.42701306  0.06101626  0.85293836     0.35700
C825        C  0.46311612  0.98231776  0.78404768     0.39200
C826        C  0.37994777  0.02516620  0.82905285    -0.04400
C827        C  0.35570762  0.03219069  0.82929022     0.02800
C828        C  0.34767539  0.05207076  0.81298579    -0.04000
C829        C  0.36381607  0.06443693  0.79580262    -0.00200
C830        C  0.38805293  0.05717168  0.79525513    -0.02800
C831        C  0.38838732  0.00529786  0.84662436     0.36500
C832        C  0.35553489  0.08499044  0.77927668     0.40100
C833        C  0.33910053  0.01925123  0.84674267     0.39200
C834        C  0.40469399  0.06979840  0.77759240     0.36200
C835        C  0.41655471  0.00210254  0.77361765     0.36800
C836        C  0.47499467  0.04412507  0.86068714     0.40100
N837        N  0.32587748  0.00889265  0.86065362    -0.38000
N838        N  0.39526922  0.98953189  0.86065336    -0.39600
N839        N  0.34884839  0.10143047  0.76619893    -0.37300
N840        N  0.41796508  0.07984291  0.76343000    -0.39700
N841        N  0.41929603  0.07641706  0.86735827    -0.39500
N842        N  0.48697967  0.05326994  0.87769382    -0.37100
N843        N  0.46982183  0.96572454  0.77075917    -0.38200
N844        N  0.40473688  0.99402116  0.75572030    -0.39800
C845        C  0.82057054  0.31684146  0.99663027    -0.04800
C846        C  0.83029775  0.29441534  0.00552920     0.09400
C847        C  0.83501560  0.27578167  0.98540062    -0.02100
C848        C  0.83257773  0.28041386  0.95615123    -0.00400
C849        C  0.82455109  0.30361336  0.94695135    -0.04000
C850        C  0.81751344  0.32139323  0.96744074     0.03000
C851        C  0.83904234  0.29182023  0.03535774     0.09800
C852        C  0.84339617  0.25213219  0.99488099     0.35700
C853        C  0.80754127  0.34460728  0.95858211     0.39200
C854        C  0.82330734  0.28644248  0.05746907    -0.04400
C855        C  0.83173680  0.28549207  0.08575908     0.02800
C856        C  0.85613152  0.28931805  0.09192150    -0.04000
C857        C  0.87191475  0.29423385  0.06952048    -0.00200
C858        C  0.86331104  0.29580043  0.04144646    -0.02800
C859        C  0.79839109  0.28229910  0.05107347     0.36500
C860        C  0.89715272  0.29727615  0.07510498     0.40100
C861        C  0.81500972  0.28186763  0.10857846     0.39200
C862        C  0.87935416  0.30202948  0.01872607     0.36200
C863        C  0.81467603  0.33557273  0.01758158     0.36800
C864        C  0.84028211  0.26183369  0.93585461     0.40100
N865        N  0.80161808  0.27912823  0.12678028    -0.38000
N866        N  0.77850584  0.27901614  0.04594695    -0.39600
N867        N  0.91729384  0.29973918  0.07942361    -0.37300
N868        N  0.89201099  0.30708676  0.00053256    -0.39700
N869        N  0.84997061  0.23322405  0.00240491    -0.39500
N870        N  0.84653968  0.24695121  0.91978852    -0.37100
N871        N  0.79962170  0.36317491  0.95163695    -0.38200
N872        N  0.80995677  0.35039492  0.03442786    -0.39800
C873        C  0.84863765  0.15026841  0.68279499    -0.04800
C874        C  0.86529762  0.16874639  0.68243431     0.09400
C875        C  0.88374635  0.16767892  0.66264802    -0.02100
C876        C  0.88712888  0.14685216  0.64501750    -0.00400
C877        C  0.87265030  0.12562644  0.64812435    -0.04000
C878        C  0.85093268  0.13007667  0.66417559     0.03000
C879        C  0.86189510  0.19070112  0.70095253     0.09800
C880        C  0.89978125  0.18808738  0.66105574     0.35700
C881        C  0.82895445  0.11699143  0.65926650     0.39200
C882        C  0.87048626  0.19071772  0.72915834    -0.04400
C883        C  0.86746012  0.21157985  0.74649762     0.02800
C884        C  0.85527291  0.23223310  0.73586866    -0.04000
C885        C  0.84652812  0.23213616  0.70768349    -0.00200
C886        C  0.84991764  0.21140978  0.69020797    -0.02800
C887        C  0.88237632  0.16925998  0.74037715     0.36500
C888        C  0.83365429  0.25318222  0.69683806     0.40100
C889        C  0.87778811  0.21214285  0.77484484     0.39200
C890        C  0.84102575  0.21126264  0.66118064     0.36200
C891        C  0.82826754  0.15272220  0.70164289     0.36800
C892        C  0.90516465  0.14903990  0.62348932     0.40100
N893        N  0.88619591  0.21265745  0.79736218    -0.38000
N894        N  0.89173053  0.15220146  0.74967251    -0.39600
N895        N  0.82336368  0.26996447  0.68821097    -0.37300
N896        N  0.83402974  0.21108472  0.63799239    -0.39700
N897        N  0.91251484  0.20432849  0.65987624    -0.39500
N898        N  0.91925205  0.15366703  0.60666558    -0.37100
N899        N  0.81102913  0.10729665  0.65562215    -0.38200
N900        N  0.81207657  0.15469998  0.71663776    -0.39800
C901        C  0.01987645  0.66129537  0.07586375    -0.04800
C902        C  0.00592144  0.64813742  0.05615762     0.09400
C903        C  0.98825194  0.63254969  0.06603547    -0.02100
C904        C  0.98468335  0.62986347  0.09543175    -0.00400
C905        C  0.99908396  0.64247253  0.11539842    -0.04000
C906        C  0.01655511  0.65845052  0.10538831     0.03000
C907        C  0.00987345  0.65015594  0.02482455     0.09800
C908        C  0.97376291  0.61912953  0.04577243     0.35700
C909        C  0.03172626  0.67137838  0.12531851     0.39200
C910        C  0.02678781  0.63480977  0.01118048    -0.04400
C911        C  0.02840477  0.63434261  0.98127208     0.02800
C912        C  0.01281680  0.64894897  0.96469608    -0.04000
C913        C  0.99652773  0.66505593  0.97849740    -0.00200
C914        C  0.99525576  0.66579009  0.00847019    -0.02800
C915        C  0.04206978  0.61896528  0.02797233     0.36500
C916        C  0.97998802  0.67976796  0.96197217     0.40100
C917        C  0.04621594  0.61882076  0.96756588     0.39200
C918        C  0.97841304  0.68213392  0.02259560     0.36200
C919        C  0.03776327  0.67762928  0.06563662     0.36800
C920        C  0.96558992  0.61462585  0.10495488     0.40100
N921        N  0.06043529  0.60647193  0.95660718    -0.38000
N922        N  0.05423079  0.60631242  0.04139452    -0.39600
N923        N  0.96668914  0.69144476  0.94884109    -0.37300
N924        N  0.96503943  0.69518941  0.03395737    -0.39700
N925        N  0.96224249  0.60845363  0.02956213    -0.39500
N926        N  0.95034404  0.60246425  0.11248628    -0.37100
N927        N  0.04387038  0.68175417  0.14113793    -0.38200
N928        N  0.05200226  0.69067057  0.05739580    -0.39800
C929        C  0.96977061  0.79562380  0.68300541    -0.04800
C930        C  0.95900389  0.78482669  0.70628962     0.09400
C931        C  0.93813035  0.79531333  0.71774417    -0.02100
C932        C  0.92709109  0.81595458  0.70527715    -0.00400
C933        C  0.93724074  0.82710999  0.68066060    -0.04000
C934        C  0.95991703  0.81700352  0.67115227     0.03000
C935        C  0.97002394  0.76263629  0.71955022     0.09800
C936        C  0.92806988  0.78473712  0.74305646     0.35700
C937        C  0.97347890  0.82818146  0.64868998     0.39200
C938        C  0.99106779  0.76449251  0.73598514    -0.04400
C939        C  0.00054635  0.74397393  0.75002618     0.02800
C940        C  0.98865683  0.72154118  0.74853665    -0.04000
C941        C  0.96788802  0.71957792  0.73136762    -0.00200
C942        C  0.95882546  0.73997283  0.71673218    -0.02800
C943        C  0.00272953  0.78770511  0.73896126     0.36500
C944        C  0.95494678  0.69701990  0.72965762     0.40100
C945        C  0.02283929  0.74593218  0.76561260     0.39200
C946        C  0.93749896  0.73776230  0.69933313     0.36200
C947        C  0.99087849  0.78417415  0.67062102     0.36800
C948        C  0.90612274  0.82533234  0.71987959     0.40100
N949        N  0.04066660  0.74751535  0.77794674    -0.38000
N950        N  0.01212102  0.80617522  0.74126987    -0.39600
N951        N  0.94451095  0.67910338  0.72808370    -0.37300
N952        N  0.92038658  0.73579202  0.68570145    -0.39700
N953        N  0.92005790  0.77630930  0.76314846    -0.39500
N954        N  0.88949281  0.83189760  0.73247142    -0.37100
N955        N  0.98441965  0.83691827  0.63090140    -0.38200
N956        N  0.00761714  0.77495336  0.66070378    -0.39800
C957        C  0.93397602  0.44869581  0.79656979    -0.04800
C958        C  0.92192020  0.46645839  0.78029946     0.09400
C959        C  0.90054373  0.46073726  0.76602200    -0.02100
C960        C  0.89051740  0.43766637  0.76936883    -0.00400
C961        C  0.90178061  0.42053514  0.78727226    -0.04000
C962        C  0.92381458  0.42584116  0.80027104     0.03000
C963        C  0.93075630  0.49178907  0.78104715     0.09800
C964        C  0.88860038  0.47884218  0.74867313     0.35700
C965        C  0.93584866  0.40787590  0.81781034     0.39200
C966        C  0.94774204  0.49922184  0.76129267    -0.04400
C967        C  0.96017403  0.52096359  0.76610168     0.02800
C968        C  0.95507173  0.53563223  0.79037117    -0.04000
C969        C  0.93610109  0.52931324  0.80834249    -0.00200
C970        C  0.92426346  0.50726984  0.80391142    -0.02800
C971        C  0.95276211  0.48409396  0.73648046     0.36500
C972        C  0.92852185  0.54548739  0.83132549     0.40100
C973        C  0.97910473  0.52732519  0.74696242     0.39200
C974        C  0.90587502  0.50002322  0.82342253     0.36200
C975        C  0.95654456  0.45426661  0.81017835     0.36800
C976        C  0.86808964  0.43196672  0.75554806     0.40100
N977        N  0.99421644  0.53228563  0.73162025    -0.38000
N978        N  0.95650657  0.47207029  0.71656571    -0.39600
N979        N  0.92237224  0.55833259  0.84965588    -0.37300
N980        N  0.89123063  0.49413947  0.83892809    -0.39700
N981        N  0.87910055  0.49329792  0.73478849    -0.39500
N982        N  0.85019018  0.42737952  0.74454813    -0.37100
N983        N  0.94537114  0.39353017  0.83182965    -0.38200
N984        N  0.97456745  0.45874137  0.82094320    -0.39800
loop_ 
_geom_bond_atom_site_label_1 
_geom_bond_atom_site_label_2 
_geom_bond_distance 
_geom_bond_site_symmetry_2 
_ccdc_geom_bond_type 
N1            N2   1.321       .  A
N1            C5   1.346       .  A
N1           Cu9   2.068       .  S
N2            C3   1.341       .  A
N2           Cu8   2.068   1_655  S
C3            C4   1.384       .  A
C3            H6   1.082       .  S
C4            C5   1.385       .  A
C4          C968   1.488       .  S
C5            H7   1.082       .  S
Cu8          N11   2.068       .  S
Cu9          N19   2.068   1_655  S
Cu10         N12   2.086       .  S
Cu10         N18   2.086       .  S
N11          N12   1.321       .  A
N11          C15   1.343       .  A
N12          C13   1.349       .  A
C13          C14   1.388       .  A
C13          H16   1.082       .  S
C14          C15   1.383       .  A
C14         C912   1.491       .  S
C15          H17   1.082       .  S
N18          N19   1.323       .  A
N18          C22   1.345       .  A
N19          C20   1.344   1_455  A
C20          C21   1.385       .  A
C20          H23   1.082       .  S
C21          C22   1.387   1_655  A
C21         C940   1.493       .  S
C22          H24   1.082       .  S
N25          N26   1.322       .  A
N25          C29   1.344       .  A
N25         Cu33   2.057       .  S
N26          C27   1.342       .  A
N26         Cu32   2.066       .  S
C27          C28   1.380       .  A
C27          H30   1.082       .  S
C28          C29   1.379       .  A
C28         C961   1.473       .  S
C29          H31   1.082       .  S
Cu32         N35   2.067       .  S
Cu33         N43   2.058       .  S
Cu34         N36   2.068       .  S
Cu34         N42   2.070       .  S
N35          N36   1.320       .  A
N35          C39   1.343       .  A
N36          C37   1.344       .  A
C37          C38   1.386       .  A
C37          H40   1.081       .  S
C38          C39   1.385       .  A
C38         C849   1.490       .  S
C39          H41   1.082       .  S
N42          N43   1.323       .  A
N42          C46   1.344       .  A
N43          C44   1.342       .  A
C44          C45   1.378       .  A
C44          H47   1.082       .  S
C45          C46   1.381       .  A
C45         C884   1.475       .  S
C46          H48   1.082       .  S
N49          N50   1.321       .  A
N49          C53   1.346       .  A
N49         Cu57   2.070       .  S
N50          C51   1.343       .  A
N50         Cu56   2.070       .  S
C51          C52   1.383   1_565  A
C51          H54   1.082       .  S
C52          C53   1.384   1_545  A
C52         C821   1.486       .  S
C53          H55   1.082       .  S
Cu56         N59   2.071       .  S
Cu57         N67   2.070       .  S
Cu58         N60   2.072       .  S
Cu58         N66   2.072       .  S
N59          N60   1.322       .  A
N59          C63   1.343       .  A
N60          C61   1.346       .  A
C61          C62   1.384       .  A
C61          H64   1.082       .  S
C62          C63   1.383       .  A
C62         C765   1.484       .  S
C63          H65   1.082       .  S
N66          N67   1.322       .  A
N66          C70   1.344       .  A
N67          C68   1.343       .  A
C68          C69   1.385       .  A
C68          H71   1.082       .  S
C69          C70   1.387       .  A
C69         C793   1.492       .  S
C70          H72   1.082       .  S
N73          N74   1.322       .  A
N73          C77   1.347       .  A
N73         Cu81   2.078       .  S
N74          C75   1.342       .  A
N74         Cu80   2.061       .  S
C75          C76   1.378       .  A
C75          H78   1.082       .  S
C76          C77   1.383       .  A
C76         C828   1.477       .  S
C77          H79   1.082       .  S
Cu80         N83   2.060       .  S
Cu81         N91   2.078       .  S
Cu82         N84   2.070       .  S
Cu82         N90   2.070       .  S
N83          N84   1.321       .  A
N83          C87   1.342       .  A
N84          C85   1.344       .  A
C85          C86   1.385       .  A
C85          H88   1.082       .  S
C86          C87   1.383       .  A
C86         C709   1.486       .  S
C87          H89   1.082       .  S
N90          N91   1.323       .  A
N90          C94   1.345       .  A
N91          C92   1.344       .  A
C92          C93   1.384       .  A
C92          H95   1.082       .  S
C93          C94   1.382       .  A
C93         C737   1.485       .  S
C94          H96   1.082       .  S
C97         C632   1.603       .  S
C97         C653   1.603       .  S
C97         C688   1.612       .  S
C97         C877   1.610       .  S
C98         C569   1.616   1_545  S
C98         C597   1.603   1_545  S
C98         C681   1.604       .  S
C98         C744   1.603       .  S
C99         C513   1.616       .  S
C99         C541   1.602       .  S
C99         C660   1.594       .  S
C99         C800   1.603       .  S
C100        C485   1.613       .  S
C100        C548   1.590       .  S
C100        C604   1.617       .  S
C100        C933   1.595       .  S
N101        N102   1.322       .  A
N101        C105   1.348       .  A
N101       Cu109   2.076       .  S
N102        C103   1.340       .  A
N102       Cu108   2.062       .  S
C103        C104   1.381       .  A
C103        H106   1.082       .  S
C104        C105   1.386       .  A
C104        C457   1.484       .  S
C105        H107   1.082       .  S
Cu108       N111   2.062       .  S
Cu109       N119   2.077       .  S
Cu110       N112   2.069       .  S
Cu110       N118   2.070       .  S
N111        N112   1.320       .  A
N111        C115   1.342       .  A
N112        C113   1.346       .  A
C113        C114   1.385       .  A
C113        H116   1.082       .  S
C114        C115   1.382       .  A
C114        C772   1.484       .  S
C115        H117   1.082       .  S
N118        N119   1.323       .  A
N118        C122   1.343       .  A
N119        C120   1.345       .  A
C120        C121   1.386       .  A
C120        H123   1.082       .  S
C121        C122   1.382       .  A
C121        C429   1.487       .  S
C122        H124   1.082       .  S
N125        N126   1.321       .  A
N125        C129   1.347       .  A
N125       Cu133   2.076       .  S
N126        C127   1.340       .  A
N126       Cu132   2.058       .  S
C127        C128   1.382       .  A
C127        H130   1.082       .  S
C128        C129   1.388       .  A
C128        C464   1.489       .  S
C129        H131   1.082       .  S
Cu132       N135   2.058       .  S
Cu133       N143   2.077       .  S
Cu134       N136   2.067       .  S
Cu134       N142   2.067       .  S
N135        N136   1.321       .  A
N135        C139   1.342       .  A
N136        C137   1.344       .  A
C137        C138   1.383       .  A
C137        H140   1.082       .  S
C138        C139   1.381       .  A
C138        C716   1.480       .  S
C139        H141   1.082       .  S
N142        N143   1.322       .  A
N142        C146   1.343       .  A
N143        C144   1.344       .  A
C144        C145   1.387       .  A
C144        H147   1.081       .  S
C145        C146   1.385       .  A
C145        C401   1.492       .  S
C146        H148   1.082       .  S
N149        N150   1.321       .  A
N149        C153   1.348       .  A
N149       Cu157   2.076       .  S
N150        C151   1.342       .  A
N150       Cu156   2.073       .  S
C151        C152   1.386       .  A
C151        H154   1.082       .  S
C152        C153   1.389       .  A
C152        C373   1.495       .  S
C153        H155   1.082       .  S
Cu156       N159   2.073       .  S
Cu157       N167   2.077       .  S
Cu158       N160   2.084       .  S
Cu158       N166   2.085       .  S
N159        N160   1.321       .  A
N159        C163   1.343       .  A
N160        C161   1.349       .  A
C161        C162   1.389       .  A
C161        H164   1.082       .  S
C162        C163   1.386       .  A
C162        C905   1.496       .  S
C163        H165   1.082       .  S
N166        N167   1.324       .  A
N166        C170   1.346       .  A
N167        C168   1.345       .  A
C168        C169   1.383       .  A
C168        H171   1.082       .  S
C169        C170   1.385       .  A
C169        C352   1.489       .  S
C170        H172   1.082       .  S
N173        N174   1.321       .  A
N173        C177   1.349       .  A
N173       Cu181   2.082       .  S
N174        C175   1.341       .  A
N174       Cu180   2.066       .  S
C175        C176   1.383       .  A
C175        H178   1.082       .  S
C176        C177   1.389       .  A
C176        C380   1.492       .  S
C177        H179   1.082       .  S
Cu180       N183   2.067       .  S
Cu181       N191   2.082       .  S
Cu182       N184   2.067       .  S
Cu182       N190   2.068       .  S
N183        N184   1.321       .  A
N183        C187   1.343       .  A
N184        C185   1.345       .  A
C185        C186   1.385       .  A
C185        H188   1.082       .  S
C186        C187   1.384       .  A
C186        C856   1.487       .  S
C187        H189   1.082       .  S
N190        N191   1.322       .  A
N190        C194   1.344       .  A
N191        C192   1.344       .  A
C192        C193   1.388       .  A
C192        H195   1.082       .  S
C193        C194   1.385       .  A
C193        C317   1.494       .  S
C194        H196   1.082       .  S
C197        C268   1.608       .  S
C197        C296   1.616       .  S
C197        C324   1.610       .  S
C197        C625   1.597       .  S
C198        C233   1.604       .  S
C198        C289   1.610   1_565  S
C198        C408   1.596   1_565  S
C198        C576   1.616   1_565  S
C199        C205   1.616       .  S
C199        C240   1.613       .  S
C199        C345   1.600       .  S
C199        C492   1.605       .  S
C200        C212   1.620       .  S
C200        C261   1.609       .  S
C200        C436   1.599       .  S
C200        C520   1.612       .  S
C201        C202   1.404       .  A
C201        C206   1.413       .  A
C201        C219   1.452       .  S
C202        C203   1.407       .  A
C202        C207   1.515       .  S
C203        C204   1.421       .  A
C203        C208   1.453       .  S
C204        C205   1.447       .  A
C204        C220   1.447       .  S
C205        C206   1.449       .  A
C206        C209   1.454       .  S
C207        C210   1.405       .  A
C207        C214   1.412       .  A
C208        N225   1.157       .  T
C209        N227   1.157       .  T
C210        C211   1.407       .  A
C210        C215   1.453       .  S
C211        C212   1.443       .  A
C211        C217   1.453       .  S
C212        C213   1.440       .  A
C213        C214   1.429       .  A
C213        C216   1.449       .  S
C214        C218   1.453       .  S
C215        N222   1.157       .  T
C216        N223   1.158       .  T
C217        N221   1.158       .  T
C218        N224   1.157       .  T
C219        N228   1.157       .  T
C220        N226   1.158       .  T
C229        C230   1.399       .  A
C229        C234   1.414       .  A
C229        C247   1.453       .  S
C230        C231   1.401       .  A
C230        C235   1.500   1_455  S
C231        C232   1.414       .  A
C231        C236   1.453       .  S
C232        C233   1.445       .  A
C232        C248   1.449       .  S
C233        C234   1.440       .  A
C234        C237   1.441       .  S
C235        C238   1.399       .  A
C235        C242   1.404   1_655  A
C236        N253   1.157   1_455  T
C237        N255   1.158       .  T
C238        C239   1.405       .  A
C238        C243   1.452       .  S
C239        C240   1.440       .  A
C239        C245   1.449       .  S
C240        C241   1.445       .  A
C241        C242   1.421   1_655  A
C241        C244   1.452       .  S
C242        C246   1.453       .  S
C243        N250   1.157       .  T
C244        N251   1.158   1_655  T
C245        N249   1.157       .  T
C246        N252   1.157       .  T
C247        N256   1.157       .  T
C248        N254   1.157       .  T
C257        C258   1.406   1_565  A
C257        C262   1.406       .  A
C257        C275   1.454       .  S
C258        C259   1.403   1_545  A
C258        C263   1.510       .  S
C259        C260   1.426       .  A
C259        C264   1.455   1_565  S
C260        C261   1.449       .  A
C260        C276   1.444       .  S
C261        C262   1.447       .  A
C262        C265   1.455       .  S
C263        C266   1.410       .  A
C263        C270   1.396       .  A
C264        N281   1.157       .  T
C265        N283   1.157       .  T
C266        C267   1.423       .  A
C266        C271   1.451       .  S
C267        C268   1.434       .  A
C267        C273   1.449       .  S
C268        C269   1.456       .  A
C269        C270   1.411       .  A
C269        C272   1.455       .  S
C270        C274   1.456       .  S
C271        N278   1.157       .  T
C272        N279   1.158       .  T
C273        N277   1.157       .  T
C274        N280   1.157       .  T
C275        N284   1.156   1_565  T
C276        N282   1.157       .  T
C285        C286   1.401       .  A
C285        C290   1.414   1_545  A
C285        C303   1.455       .  S
C286        C287   1.402       .  A
C286        C291   1.506       .  S
C287        C288   1.420   1_655  A
C287        C292   1.456       .  S
C288        C289   1.449       .  A
C288        C304   1.447       .  S
C289        C290   1.451   1_445  A
C290        C293   1.455       .  S
C291        C294   1.398       .  A
C291        C298   1.400       .  A
C292        N309   1.157       .  T
C293        N311   1.158       .  T
C294        C295   1.411       .  A
C294        C299   1.455       .  S
C295        C296   1.453       .  A
C295        C301   1.453       .  S
C296        C297   1.451       .  A
C297        C298   1.421       .  A
C297        C300   1.444       .  S
C298        C302   1.456       .  S
C299        N306   1.157       .  T
C300        N307   1.158       .  T
C301        N305   1.158       .  T
C302        N308   1.157   1_545  T
C303        N312   1.157   1_545  T
C304        N310   1.158       .  T
C313        C314   1.413       .  A
C313        C318   1.411       .  A
C313        C331   1.449       .  S
C314        C315   1.413       .  A
C314        C319   1.503       .  S
C315        C316   1.410       .  A
C315        C320   1.453       .  S
C316        C317   1.417       .  A
C316        C332   1.451       .  S
C317        C318   1.417       .  A
C318        C321   1.452       .  S
C319        C322   1.404       .  A
C319        C326   1.402       .  A
C320        N337   1.157       .  T
C321        N339   1.157       .  T
C322        C323   1.424       .  A
C322        C327   1.454       .  S
C323        C324   1.448       .  A
C323        C329   1.446       .  S
C324        C325   1.443       .  A
C325        C326   1.405       .  A
C325        C328   1.453       .  S
C326        C330   1.454       .  S
C327        N334   1.157       .  T
C328        N335   1.158       .  T
C329        N333   1.158       .  T
C330        N336   1.157       .  T
C331        N340   1.157       .  T
C332        N338   1.157       .  T
C341        C342   1.400       .  A
C341        C346   1.417       .  A
C341        C359   1.455       .  S
C342        C343   1.400       .  A
C342        C347   1.500       .  S
C343        C344   1.414       .  A
C343        C348   1.455       .  S
C344        C345   1.444       .  A
C344        C360   1.449       .  S
C345        C346   1.452       .  A
C346        C349   1.452       .  S
C347        C350   1.411       .  A
C347        C354   1.412       .  A
C348        N365   1.157       .  T
C349        N367   1.158       .  T
C350        C351   1.411       .  A
C350        C355   1.451       .  S
C351        C352   1.415       .  A
C351        C357   1.451       .  S
C352        C353   1.415       .  A
C353        C354   1.411       .  A
C353        C356   1.451   1_655  S
C354        C358   1.451   1_655  S
C355        N362   1.157       .  T
C356        N363   1.157       .  T
C357        N361   1.157       .  T
C358        N364   1.157       .  T
C359        N368   1.157       .  T
C360        N366   1.157       .  T
C369        C370   1.413       .  A
C369        C374   1.414       .  A
C369        C387   1.451       .  S
C370        C371   1.412       .  A
C370        C375   1.502       .  S
C371        C372   1.409       .  A
C371        C376   1.452       .  S
C372        C373   1.416       .  A
C372        C388   1.452   1_655  S
C373        C374   1.418       .  A
C374        C377   1.450       .  S
C375        C378   1.412       .  A
C375        C382   1.413       .  A
C376        N393   1.157       .  T
C377        N395   1.157       .  T
C378        C379   1.409       .  A
C378        C383   1.452       .  S
C379        C380   1.416       .  A
C379        C385   1.452       .  S
C380        C381   1.415       .  A
C381        C382   1.414       .  A
C381        C384   1.450       .  S
C382        C386   1.450       .  S
C383        N390   1.157       .  T
C384        N391   1.157       .  T
C385        N389   1.157       .  T
C386        N392   1.157       .  T
C387        N396   1.157       .  T
C388        N394   1.157       .  T
C397        C398   1.411       .  A
C397        C402   1.411       .  A
C397        C415   1.450       .  S
C398        C399   1.412       .  A
C398        C403   1.500       .  S
C399        C400   1.409       .  A
C399        C404   1.451       .  S
C400        C401   1.417       .  A
C400        C416   1.451       .  S
C401        C402   1.417       .  A
C402        C405   1.451       .  S
C403        C406   1.402   1_545  A
C403        C410   1.400       .  A
C404        N421   1.157   1_545  T
C405        N423   1.157       .  T
C406        C407   1.413       .  A
C406        C411   1.455       .  S
C407        C408   1.448   1_565  A
C407        C413   1.452       .  S
C408        C409   1.445       .  A
C409        C410   1.415       .  A
C409        C412   1.448       .  S
C410        C414   1.455       .  S
C411        N418   1.157       .  T
C412        N419   1.157       .  T
C413        N417   1.158       .  T
C414        N420   1.157       .  T
C415        N424   1.157       .  T
C416        N422   1.157       .  T
C425        C426   1.412       .  A
C425        C430   1.409       .  A
C425        C443   1.451       .  S
C426        C427   1.411       .  A
C426        C431   1.498       .  S
C427        C428   1.411       .  A
C427        C432   1.450       .  S
C428        C429   1.415       .  A
C428        C444   1.451       .  S
C429        C430   1.415       .  A
C430        C433   1.452       .  S
C431        C434   1.398       .  A
C431        C438   1.404       .  A
C432        N449   1.157       .  T
C433        N451   1.157       .  T
C434        C435   1.412       .  A
C434        C439   1.455       .  S
C435        C436   1.450       .  A
C435        C441   1.454       .  S
C436        C437   1.439       .  A
C437        C438   1.418       .  A
C437        C440   1.448       .  S
C438        C442   1.454       .  S
C439        N446   1.157       .  T
C440        N447   1.157       .  T
C441        N445   1.158       .  T
C442        N448   1.157       .  T
C443        N452   1.157       .  T
C444        N450   1.157       .  T
C453        C454   1.411   1_545  A
C453        C458   1.412   1_545  A
C453        C471   1.450       .  S
C454        C455   1.411       .  A
C454        C459   1.494   1_565  S
C455        C456   1.406       .  A
C455        C460   1.452       .  S
C456        C457   1.413       .  A
C456        C472   1.452       .  S
C457        C458   1.414       .  A
C458        C461   1.450       .  S
C459        C462   1.410       .  A
C459        C466   1.410       .  A
C460        N477   1.157       .  T
C461        N479   1.157   1_565  T
C462        C463   1.408       .  A
C462        C467   1.452       .  S
C463        C464   1.416       .  A
C463        C469   1.452       .  S
C464        C465   1.417       .  A
C465        C466   1.411       .  A
C465        C468   1.450       .  S
C466        C470   1.451   1_545  S
C467        N474   1.157       .  T
C468        N475   1.157   1_545  T
C469        N473   1.157       .  T
C470        N476   1.157       .  T
C471        N480   1.157       .  T
C472        N478   1.157       .  T
C481        C482   1.407       .  A
C481        C486   1.402       .  A
C481        C499   1.447       .  S
C482        C483   1.412       .  A
C482        C487   1.503       .  S
C483        C484   1.419       .  A
C483        C488   1.451       .  S
C484        C485   1.441       .  A
C484        C500   1.449       .  S
C485        C486   1.411       .  A
C486        C489   1.442       .  S
C487        C490   1.400       .  A
C487        C494   1.405       .  A
C488        N505   1.157       .  T
C489        N507   1.157       .  T
C490        C491   1.420       .  A
C490        C495   1.455       .  S
C491        C492   1.442       .  A
C491        C497   1.441       .  S
C492        C493   1.440       .  A
C493        C494   1.412       .  A
C493        C496   1.451       .  S
C494        C498   1.454       .  S
C495        N502   1.157       .  T
C496        N503   1.157       .  T
C497        N501   1.158   1_655  T
C498        N504   1.157       .  T
C499        N508   1.157       .  T
C500        N506   1.157       .  T
C509        C510   1.399       .  A
C509        C514   1.413       .  A
C509        C527   1.456       .  S
C510        C511   1.410       .  A
C510        C515   1.516       .  S
C511        C512   1.425       .  A
C511        C516   1.452       .  S
C512        C513   1.440       .  A
C512        C528   1.445       .  S
C513        C514   1.456       .  A
C514        C517   1.453       .  S
C515        C518   1.407       .  A
C515        C522   1.401       .  A
C516        N533   1.157       .  T
C517        N535   1.158       .  T
C518        C519   1.419       .  A
C518        C523   1.453       .  S
C519        C520   1.440       .  A
C519        C525   1.442       .  S
C520        C521   1.449       .  A
C521        C522   1.418       .  A
C521        C524   1.449       .  S
C522        C526   1.453       .  S
C523        N530   1.156       .  T
C524        N531   1.157       .  T
C525        N529   1.157       .  T
C526        N532   1.157       .  T
C527        N536   1.157       .  T
C528        N534   1.158       .  T
C537        C538   1.403       .  A
C537        C542   1.388       .  A
C537        C555   1.442       .  S
C538        C539   1.414       .  A
C538        C543   1.504       .  S
C539        C540   1.429       .  A
C539        C544   1.450       .  S
C540        C541   1.438       .  A
C540        C556   1.449       .  S
C541        C542   1.422       .  A
C542        C545   1.449       .  S
C543        C546   1.407       .  A
C543        C550   1.410       .  A
C544        N561   1.157       .  T
C545        N563   1.157       .  T
C546        C547   1.413       .  A
C546        C551   1.449       .  S
C547        C548   1.435       .  A
C547        C553   1.451       .  S
C548        C549   1.427       .  A
C549        C550   1.418       .  A
C549        C552   1.446       .  S
C550        C554   1.452       .  S
C551        N558   1.157       .  T
C552        N559   1.157       .  T
C553        N557   1.157       .  T
C554        N560   1.157       .  T
C555        N564   1.156       .  T
C556        N562   1.157       .  T
C565        C566   1.403   1_545  A
C565        C570   1.422       .  A
C565        C583   1.452       .  S
C566        C567   1.398       .  A
C566        C571   1.497   1_565  S
C567        C568   1.407       .  A
C567        C572   1.452       .  S
C568        C569   1.446       .  A
C568        C584   1.454       .  S
C569        C570   1.436   1_565  A
C570        C573   1.446       .  S
C571        C574   1.398   1_545  A
C571        C578   1.397       .  A
C572        N589   1.157       .  T
C573        N591   1.156       .  T
C574        C575   1.420       .  A
C574        C579   1.453       .  S
C575        C576   1.446   1_565  A
C575        C581   1.449       .  S
C576        C577   1.444       .  A
C577        C578   1.409       .  A
C577        C580   1.450       .  S
C578        C582   1.448       .  S
C579        N586   1.157       .  T
C580        N587   1.157       .  T
C581        N585   1.157       .  T
C582        N588   1.155       .  T
C583        N592   1.157       .  T
C584        N590   1.158       .  T
C593        C594   1.402       .  A
C593        C598   1.406   1_655  A
C593        C611   1.458       .  S
C594        C595   1.410   1_655  A
C594        C599   1.512       .  S
C595        C596   1.423       .  A
C595        C600   1.453       .  S
C596        C597   1.443       .  A
C596        C612   1.446       .  S
C597        C598   1.449       .  A
C598        C601   1.452   1_455  S
C599        C602   1.404       .  A
C599        C606   1.404       .  A
C600        N617   1.157       .  T
C601        N619   1.157       .  T
C602        C603   1.409       .  A
C602        C607   1.450   1_655  S
C603        C604   1.445       .  A
C603        C609   1.451       .  S
C604        C605   1.446       .  A
C605        C606   1.415       .  A
C605        C608   1.442       .  S
C606        C610   1.457       .  S
C607        N614   1.157       .  T
C608        N615   1.154       .  T
C609        N613   1.158       .  T
C610        N616   1.157       .  T
C611        N620   1.158       .  T
C612        N618   1.158       .  T
C621        C622   1.402       .  A
C621        C626   1.421       .  A
C621        C639   1.454       .  S
C622        C623   1.399       .  A
C622        C627   1.500       .  S
C623        C624   1.404       .  A
C623        C628   1.453       .  S
C624        C625   1.445       .  A
C624        C640   1.450       .  S
C625        C626   1.443       .  A
C626        C629   1.440       .  S
C627        C630   1.404       .  A
C627        C634   1.399       .  A
C628        N645   1.155       .  T
C629        N647   1.155       .  T
C630        C631   1.418       .  A
C630        C635   1.453       .  S
C631        C632   1.441       .  A
C631        C637   1.448       .  S
C632        C633   1.447       .  A
C633        C634   1.409       .  A
C633        C636   1.450       .  S
C634        C638   1.455       .  S
C635        N642   1.157       .  T
C636        N643   1.157       .  T
C637        N641   1.157       .  T
C638        N644   1.157       .  T
C639        N648   1.157       .  T
C640        N646   1.156       .  T
C649        C650   1.399       .  A
C649        C654   1.412       .  A
C649        C667   1.456       .  S
C650        C651   1.401       .  A
C650        C655   1.502       .  S
C651        C652   1.418       .  A
C651        C656   1.459       .  S
C652        C653   1.449       .  A
C652        C668   1.444       .  S
C653        C654   1.450       .  A
C654        C657   1.453       .  S
C655        C658   1.404       .  A
C655        C662   1.403       .  A
C656        N673   1.157       .  T
C657        N675   1.157       .  T
C658        C659   1.413   1_545  A
C658        C663   1.453       .  S
C659        C660   1.442       .  A
C659        C665   1.450       .  S
C660        C661   1.436       .  A
C661        C662   1.409   1_565  A
C661        C664   1.440       .  S
C662        C666   1.455   1_545  S
C663        N670   1.157       .  T
C664        N671   1.157       .  T
C665        N669   1.157   1_565  T
C666        N672   1.157       .  T
C667        N676   1.157       .  T
C668        N674   1.157       .  T
C677        C678   1.402       .  A
C677        C682   1.410   1_655  A
C677        C695   1.452       .  S
C678        C679   1.399       .  A
C678        C683   1.502       .  S
C679        C680   1.416   1_655  A
C679        C684   1.453       .  S
C680        C681   1.449       .  A
C680        C696   1.449       .  S
C681        C682   1.435       .  A
C682        C685   1.440       .  S
C683        C686   1.392       .  A
C683        C690   1.404       .  A
C684        N701   1.157       .  T
C685        N703   1.158       .  T
C686        C687   1.410       .  A
C686        C691   1.458       .  S
C687        C688   1.454       .  A
C687        C693   1.446       .  S
C688        C689   1.447       .  A
C689        C690   1.425       .  A
C689        C692   1.443       .  S
C690        C694   1.454       .  S
C691        N698   1.157       .  T
C692        N699   1.157       .  T
C693        N697   1.156       .  T
C694        N700   1.157       .  T
C695        N704   1.157       .  T
C696        N702   1.157       .  T
C705        C706   1.408       .  A
C705        C710   1.409   1_554  A
C705        C723   1.450       .  S
C706        C707   1.408       .  A
C706        C711   1.489       .  S
C707        C708   1.408   1_554  A
C707        C712   1.452       .  S
C708        C709   1.418       .  A
C708        C724   1.451       .  S
C709        C710   1.415       .  A
C710        C713   1.451       .  S
C711        C714   1.410       .  A
C711        C718   1.408       .  A
C712        N729   1.157       .  T
C713        N731   1.157       .  T
C714        C715   1.408       .  A
C714        C719   1.451       .  S
C715        C716   1.413       .  A
C715        C721   1.451       .  S
C716        C717   1.414       .  A
C717        C718   1.408       .  A
C717        C720   1.451       .  S
C718        C722   1.451       .  S
C719        N726   1.157       .  T
C720        N727   1.157       .  T
C721        N725   1.157       .  T
C722        N728   1.157       .  T
C723        N732   1.157       .  T
C724        N730   1.158       .  T
C733        C734   1.414       .  A
C733        C738   1.408       .  A
C733        C751   1.450       .  S
C734        C735   1.412       .  A
C734        C739   1.501       .  S
C735        C736   1.413       .  A
C735        C740   1.450   1_545  S
C736        C737   1.414       .  A
C736        C752   1.450       .  S
C737        C738   1.411       .  A
C738        C741   1.452       .  S
C739        C742   1.401   1_545  A
C739        C746   1.398       .  A
C740        N757   1.157       .  T
C741        N759   1.157       .  T
C742        C743   1.420       .  A
C742        C747   1.454       .  S
C743        C744   1.442   1_565  A
C743        C749   1.446       .  S
C744        C745   1.452       .  A
C745        C746   1.411       .  A
C745        C748   1.454       .  S
C746        C750   1.456       .  S
C747        N754   1.157       .  T
C748        N755   1.158       .  T
C749        N753   1.157       .  T
C750        N756   1.157       .  T
C751        N760   1.157       .  T
C752        N758   1.157   1_545  T
C761        C762   1.411       .  A
C761        C766   1.409   1_554  A
C761        C779   1.451       .  S
C762        C763   1.410       .  A
C762        C767   1.494       .  S
C763        C764   1.410   1_554  A
C763        C768   1.451       .  S
C764        C765   1.414       .  A
C764        C780   1.450       .  S
C765        C766   1.413       .  A
C766        C769   1.451       .  S
C767        C770   1.410       .  A
C767        C774   1.412       .  A
C768        N785   1.157       .  T
C769        N787   1.157       .  T
C770        C771   1.412       .  A
C770        C775   1.450       .  S
C771        C772   1.415       .  A
C771        C777   1.450       .  S
C772        C773   1.413       .  A
C773        C774   1.407       .  A
C773        C776   1.452       .  S
C774        C778   1.452       .  S
C775        N782   1.157       .  T
C776        N783   1.157       .  T
C777        N781   1.157       .  T
C778        N784   1.157       .  T
C779        N788   1.157       .  T
C780        N786   1.157       .  T
C789        C790   1.411       .  A
C789        C794   1.412       .  A
C789        C807   1.450       .  S
C790        C791   1.413       .  A
C790        C795   1.501       .  S
C791        C792   1.409       .  A
C791        C796   1.452       .  S
C792        C793   1.417       .  A
C792        C808   1.451       .  S
C793        C794   1.417       .  A
C794        C797   1.451       .  S
C795        C798   1.399       .  A
C795        C802   1.401       .  A
C796        N813   1.157       .  T
C797        N815   1.157       .  T
C798        C799   1.410       .  A
C798        C803   1.455       .  S
C799        C800   1.449       .  A
C799        C805   1.453       .  S
C800        C801   1.445       .  A
C801        C802   1.419       .  A
C801        C804   1.446       .  S
C802        C806   1.455       .  S
C803        N810   1.157   1_565  T
C804        N811   1.157       .  T
C805        N809   1.158       .  T
C806        N812   1.157       .  T
C807        N816   1.157       .  T
C808        N814   1.158       .  T
C817        C818   1.409       .  A
C817        C822   1.411       .  A
C817        C835   1.450       .  S
C818        C819   1.410       .  A
C818        C823   1.492       .  S
C819        C820   1.409       .  A
C819        C824   1.451       .  S
C820        C821   1.414       .  A
C820        C836   1.451       .  S
C821        C822   1.416       .  A
C822        C825   1.450   1_545  S
C823        C826   1.411       .  A
C823        C830   1.410       .  A
C824        N841   1.157       .  T
C825        N843   1.157       .  T
C826        C827   1.407       .  A
C826        C831   1.451       .  S
C827        C828   1.411       .  A
C827        C833   1.451       .  S
C828        C829   1.410       .  A
C829        C830   1.411       .  A
C829        C832   1.450       .  S
C830        C834   1.449       .  S
C831        N838   1.157   1_545  T
C832        N839   1.157       .  T
C833        N837   1.157       .  T
C834        N840   1.157       .  T
C835        N844   1.157   1_545  T
C836        N842   1.157       .  T
C845        C846   1.408   1_556  A
C845        C850   1.409       .  A
C845        C863   1.451   1_556  S
C846        C847   1.408   1_554  A
C846        C851   1.492       .  S
C847        C848   1.409       .  A
C847        C852   1.451       .  S
C848        C849   1.419       .  A
C848        C864   1.451       .  S
C849        C850   1.416       .  A
C850        C853   1.451       .  S
C851        C854   1.408       .  A
C851        C858   1.411       .  A
C852        N869   1.157   1_556  T
C853        N871   1.157       .  T
C854        C855   1.411       .  A
C854        C859   1.450       .  S
C855        C856   1.417       .  A
C855        C861   1.450       .  S
C856        C857   1.415       .  A
C857        C858   1.407       .  A
C857        C860   1.451       .  S
C858        C862   1.452       .  S
C859        N866   1.157       .  T
C860        N867   1.157       .  T
C861        N865   1.157       .  T
C862        N868   1.157       .  T
C863        N872   1.157       .  T
C864        N870   1.158       .  T
C873        C874   1.395       .  A
C873        C878   1.409       .  A
C873        C891   1.455       .  S
C874        C875   1.398       .  A
C874        C879   1.489       .  S
C875        C876   1.415       .  A
C875        C880   1.456       .  S
C876        C877   1.446       .  A
C876        C892   1.446       .  S
C877        C878   1.454       .  A
C878        C881   1.456       .  S
C879        C882   1.409       .  A
C879        C886   1.411       .  A
C880        N897   1.157       .  T
C881        N899   1.158       .  T
C882        C883   1.407       .  A
C882        C887   1.450       .  S
C883        C884   1.412       .  A
C883        C889   1.451       .  S
C884        C885   1.411       .  A
C885        C886   1.407       .  A
C885        C888   1.451       .  S
C886        C890   1.451       .  S
C887        N894   1.157       .  T
C888        N895   1.157       .  T
C889        N893   1.157       .  T
C890        N896   1.157       .  T
C891        N900   1.157       .  T
C892        N898   1.158       .  T
C901        C902   1.410       .  A
C901        C906   1.415       .  A
C901        C919   1.450       .  S
C902        C903   1.410   1_455  A
C902        C907   1.499       .  S
C903        C904   1.410       .  A
C903        C908   1.451       .  S
C904        C905   1.417       .  A
C904        C920   1.451       .  S
C905        C906   1.417   1_655  A
C906        C909   1.450       .  S
C907        C910   1.410       .  A
C907        C914   1.411   1_455  A
C908        N925   1.157       .  T
C909        N927   1.157       .  T
C910        C911   1.411   1_554  A
C910        C915   1.450       .  S
C911        C912   1.415       .  A
C911        C917   1.451       .  S
C912        C913   1.416   1_455  A
C913        C914   1.413   1_556  A
C913        C916   1.450       .  S
C914        C918   1.450       .  S
C915        N922   1.157       .  T
C916        N923   1.157       .  T
C917        N921   1.157       .  T
C918        N924   1.157       .  T
C919        N928   1.157       .  T
C920        N926   1.157       .  T
C929        C930   1.401       .  A
C929        C934   1.412       .  A
C929        C947   1.453       .  S
C930        C931   1.404       .  A
C930        C935   1.501       .  S
C931        C932   1.417       .  A
C931        C936   1.456       .  S
C932        C933   1.445       .  A
C932        C948   1.450       .  S
C933        C934   1.450       .  A
C934        C937   1.458       .  S
C935        C938   1.412       .  A
C935        C942   1.411       .  A
C936        N953   1.157       .  T
C937        N955   1.158       .  T
C938        C939   1.411   1_655  A
C938        C943   1.451   1_655  S
C939        C940   1.415   1_455  A
C939        C945   1.451       .  S
C940        C941   1.419       .  A
C941        C942   1.411       .  A
C941        C944   1.451       .  S
C942        C946   1.452       .  S
C943        N950   1.157       .  T
C944        N951   1.158       .  T
C945        N949   1.157       .  T
C946        N952   1.157       .  T
C947        N956   1.157   1_655  T
C948        N954   1.158       .  T
C957        C958   1.411       .  A
C957        C962   1.405       .  A
C957        C975   1.451       .  S
C958        C959   1.410       .  A
C958        C963   1.488       .  S
C959        C960   1.410       .  A
C959        C964   1.449       .  S
C960        C961   1.412       .  A
C960        C976   1.450       .  S
C961        C962   1.409       .  A
C962        C965   1.452       .  S
C963        C966   1.407       .  A
C963        C970   1.408       .  A
C964        N981   1.157       .  T
C965        N983   1.157       .  T
C966        C967   1.411       .  A
C966        C971   1.450       .  S
C967        C968   1.416       .  A
C967        C973   1.450       .  S
C968        C969   1.417       .  A
C969        C970   1.406       .  A
C969        C972   1.451       .  S
C970        C974   1.452       .  S
C971        N978   1.157       .  T
C972        N979   1.157       .  T
C973        N977   1.157       .  T
C974        N980   1.157       .  T
C975        N984   1.157       .  T
C976        N982   1.157       .  T
