geometry optimzed in LAMMPS
_audit_creation_date              2020-12-01 
_audit_creation_method            'lammps2cif' 
_symmetry_space_group_name_H-M    'P1' 
_symmetry_Int_Tables_number       1 
_symmetry_cell_setting            triclinic 
loop_ 
_symmetry_equiv_pos_as_xyz 
  x,y,z 
_cell_length_a                    33.75180749 
_cell_length_b                    33.655729913626466 
_cell_length_c                    33.55763675052272 
_cell_angle_alpha                 89.63759800230173 
_cell_angle_beta                  89.45716647457523 
_cell_angle_gamma                 90.2424515919983 
loop_ 
_atom_site_label 
_atom_site_type_symbol 
_atom_site_fract_x 
_atom_site_fract_y 
_atom_site_fract_z 
_atom_site_charge 
O1          O  0.22990049  0.75237065  0.58413920    -0.82700
C2          C  0.09000988  0.77679341  0.49855808     0.96700
O3          O  0.10286412  0.74269336  0.50855418    -0.71800
O4          O  0.17570811  0.72785490  0.48429577    -0.75400
Al5        Al  0.15150173  0.72657199  0.53551673     1.49000
C6          C  0.21278633  0.72965711  0.47994612     0.91900
O7          O  0.20847647  0.82747966  0.50469065    -0.81600
O8          O  0.15633218  0.82048407  0.61139778    -0.75200
Al9        Al  0.21741080  0.78890211  0.54455255     1.90100
O10         O  0.15866857  0.85631624  0.53553673    -0.74200
O11         O  0.09707600  0.77579561  0.59281151    -0.74100
O12         O  0.10228766  0.80728181  0.51602196    -0.79700
O13         O  0.12625449  0.71854531  0.58536614    -0.77900
O14         O  0.16646874  0.77573533  0.54730600    -1.14100
O15         O  0.19806515  0.70115705  0.55940517    -0.73300
C16         C  0.22560442  0.71544543  0.58076035     0.97400
C17         C  0.18621227  0.85723758  0.50924475     0.93800
Al18       Al  0.13129094  0.81205744  0.56257152     1.55600
O19         O  0.23260450  0.75147520  0.50305549    -0.77900
C20         C  0.10223598  0.74015142  0.60407122     0.98000
C21         C  0.19201025  0.82967305  0.61568594     0.92900
O22         O  0.21601935  0.82766644  0.58659382    -0.83200
O23         O  0.29720146  0.87536072  0.76045069    -0.82700
C24         C  0.31388512  0.96182495  0.90107235     0.96700
O25         O  0.28061276  0.95056003  0.88735872    -0.71800
O26         O  0.26654577  0.97357528  0.81391747    -0.75400
Al27       Al  0.26684531  0.92280472  0.83814056     1.49000
C28         C  0.26931912  0.97830737  0.77678300     0.91900
O29         O  0.36809270  0.95681571  0.78330193    -0.81600
O30         O  0.36167395  0.85084909  0.83683911    -0.75200
Al31       Al  0.33132714  0.91594866  0.77362767     1.90100
O32         O  0.39654952  0.92629397  0.83357113    -0.74200
O33         O  0.31642010  0.87086232  0.89564452    -0.74100
O34         O  0.34572847  0.94691232  0.88876086    -0.79700
O35         O  0.26066711  0.87292993  0.86343485    -0.77900
O36         O  0.31667345  0.91334524  0.82442197    -1.14100
O37         O  0.24390203  0.89760953  0.79060704    -0.73300
C38         C  0.26020756  0.87682583  0.76344048     0.97400
C39         C  0.39772513  0.95185238  0.80543280     0.93800
Al40       Al  0.35226892  0.89994120  0.86084146     1.55600
O41         O  0.29258969  0.95619352  0.75704540    -0.77900
C42         C  0.28221587  0.85694556  0.88933942     0.98000
C43         C  0.37356712  0.84633716  0.80168899     0.92900
O44         O  0.37145807  0.87485604  0.77692508    -0.83200
O45         O  0.40883335  0.69460077  0.70553693    -0.82700
C46         C  0.49380349  0.55481391  0.67925939     0.96700
O47         O  0.48262419  0.56705813  0.71339070    -0.71800
O48         O  0.50919733  0.63989838  0.72649889    -0.75400
Al49       Al  0.45774406  0.61709808  0.72949635     1.49000
C50         C  0.51365720  0.67711546  0.72433696     0.91900
O51         O  0.48454769  0.67530292  0.62642949    -0.81600
O52         O  0.38142860  0.61969890  0.63670257    -0.75200
Al53       Al  0.44675525  0.68294165  0.66707713     1.90100
O54         O  0.45540156  0.62402843  0.59902933    -0.74200
O55         O  0.40291827  0.56170687  0.68171702    -0.74100
O56         O  0.47846104  0.56850551  0.64819371    -0.79700
O57         O  0.40709902  0.59405528  0.73785638    -0.77900
O58         O  0.44560582  0.63199318  0.68015367    -1.14100
O59         O  0.43718256  0.66510516  0.75589607    -0.73300
C60         C  0.41699431  0.69357976  0.74178299     0.97400
C61         C  0.48027963  0.65248337  0.59710832     0.93800
Al62       Al  0.43090599  0.59626227  0.64422141     1.55600
O63         O  0.49038992  0.69733916  0.70269142    -0.77900
C64         C  0.38930947  0.56937883  0.71620197     0.98000
C65         C  0.37489510  0.65541878  0.62871548     0.92900
O66         O  0.40236261  0.68110648  0.63081848    -0.83200
O67         O  0.79550807  0.57739765  0.19881211    -0.82700
C68         C  0.81576813  0.49356010  0.05707120     0.96700
O69         O  0.78211573  0.50473134  0.07026137    -0.71800
O70         O  0.76947621  0.47850499  0.14290883    -0.75400
Al71       Al  0.76748010  0.53011364  0.12075162     1.49000
C72         C  0.77123577  0.47354350  0.17996593     0.91900
O73         O  0.86814592  0.49823789  0.17342432    -0.81600
O74         O  0.86178849  0.60597395  0.12366977    -0.75200
Al75       Al  0.83108853  0.53788321  0.18447157     1.90100
O76         O  0.89764409  0.52979618  0.12392479    -0.74200
O77         O  0.81571543  0.58664429  0.06493512    -0.74100
O78         O  0.84689022  0.51029951  0.06880479    -0.79700
O79         O  0.75951582  0.58039869  0.09742813    -0.77900
O80         O  0.81700190  0.54145969  0.13409185    -1.14100
O81         O  0.74318908  0.55189046  0.17020336    -0.73300
C82         C  0.75885979  0.57118080  0.19866442     0.97400
C83         C  0.89795764  0.50291118  0.15100812     0.93800
Al84       Al  0.85275791  0.55691815  0.09793086     1.55600
O85         O  0.79344269  0.49609870  0.20007121    -0.77900
C86         C  0.78057696  0.59831299  0.07184183     0.98000
C87         C  0.87117668  0.60978341  0.15958057     0.92900
O88         O  0.87048657  0.57977522  0.18253949    -0.83200
O89         O  0.72963087  0.70313675  0.37779825    -0.82700
C90         C  0.58919586  0.68040773  0.46436857     0.96700
O91         O  0.60225123  0.71405123  0.45258459    -0.71800
O92         O  0.67487346  0.72716335  0.47907293    -0.75400
Al93       Al  0.65273796  0.72918065  0.42740085     1.49000
C94         C  0.71187555  0.72493873  0.48351322     0.91900
O95         O  0.70885443  0.62768013  0.45750645    -0.81600
O96         O  0.65583734  0.63517347  0.35211546    -0.75200
Al97       Al  0.71748797  0.66638575  0.41778953     1.90100
O98         O  0.65838230  0.59930266  0.42799826    -0.74200
O99         O  0.59761644  0.68031415  0.37320517    -0.74100
O100        O  0.60295026  0.64903335  0.44963194    -0.79700
O101        O  0.63010569  0.73661777  0.37688578    -0.77900
O102        O  0.66698580  0.67971293  0.41621504    -1.14100
O103        O  0.70125133  0.75445971  0.40569623    -0.73300
C104        C  0.72940059  0.73956317  0.38534542     0.97400
C105        C  0.68624996  0.59809473  0.45333944     0.93800
Al106      Al  0.63138288  0.64374575  0.40201226     1.55600
O107        O  0.73212910  0.70347023  0.46000261    -0.77900
C108        C  0.60454348  0.71517568  0.36027159     0.98000
C109        C  0.69107672  0.62455879  0.34719824     0.92900
O110        O  0.71544846  0.62770159  0.37552853    -0.83200
O111        O  0.90888600  0.76184051  0.26382542    -0.82700
C112        C  0.99597213  0.90304375  0.27765308     0.96700
O113        O  0.98384242  0.88898824  0.24470372    -0.71800
O114        O  0.00750278  0.81546572  0.23102837    -0.75400
Al115      Al  0.95656955  0.83876174  0.23222173     1.49000
C116        C  0.01192289  0.77838513  0.23421825     0.91900
O117        O  0.99110786  0.78430239  0.33383308    -0.81600
O118        O  0.88642273  0.83797852  0.33040407    -0.75200
Al119      Al  0.95005449  0.77500784  0.29760648     1.90100
O120        O  0.96288305  0.83575081  0.36250531    -0.74200
O121        O  0.90488128  0.89578969  0.28310005    -0.74100
O122        O  0.98194506  0.89053557  0.31018533    -0.79700
O123        O  0.90607889  0.86255309  0.22743236    -0.77900
O124        O  0.94786892  0.82554522  0.28282182    -1.14100
O125        O  0.93242100  0.79006454  0.20971910    -0.73300
C126        C  0.91234283  0.76242626  0.22656746     0.97400
C127        C  0.98773718  0.80734209  0.36316392     0.93800
Al128      Al  0.93522792  0.86216029  0.31871829     1.55600
O129        O  0.98995159  0.75902929  0.25832879    -0.77900
C130        C  0.88980967  0.88794331  0.24959685     0.98000
C131        C  0.88170596  0.80280809  0.34192403     0.92900
O132        O  0.90981705  0.77819630  0.33874388    -0.83200
O133        O  0.61969317  0.19503856  0.74852980    -0.82700
C134        C  0.53392693  0.05510590  0.78167407     0.96700
O135        O  0.54562734  0.06630131  0.74734856    -0.71800
O136        O  0.51863793  0.13832294  0.73196415    -0.75400
Al137      Al  0.56994386  0.11598295  0.72960286     1.49000
C138        C  0.51411383  0.17554194  0.73184495     0.91900
O139        O  0.54301140  0.17917438  0.82865446    -0.81600
O140        O  0.64483448  0.12312194  0.82472353    -0.75200
Al141      Al  0.58131070  0.18482861  0.78785806     1.90100
O142        O  0.56947896  0.12795291  0.85899234    -0.74200
O143        O  0.62553190  0.06378089  0.78065095    -0.74100
O144        O  0.54860110  0.07038334  0.81216542    -0.79700
O145        O  0.62022229  0.09299070  0.72245186    -0.77900
O146        O  0.58219721  0.13317041  0.77801968    -1.14100
O147        O  0.59050602  0.16245542  0.70063553    -0.73300
C148        C  0.61263023  0.19056123  0.71218458     0.97400
C149        C  0.54533074  0.15693925  0.85888053     0.93800
Al150      Al  0.59585306  0.09898308  0.81609493     1.55600
O151        O  0.53795130  0.19712995  0.75136613    -0.77900
C152        C  0.63817835  0.06937272  0.74518931     0.98000
C153        C  0.65155621  0.15910149  0.83095849     0.92900
O154        O  0.62516186  0.18498314  0.82474723    -0.83200
O155        O  0.79640473  0.25422534  0.87825336    -0.82700
C156        C  0.93790718  0.27545579  0.96320609     0.96700
O157        O  0.92405074  0.24191563  0.95284943    -0.71800
O158        O  0.85126278  0.22714535  0.97722405    -0.75400
Al159      Al  0.87496492  0.22706065  0.92608123     1.49000
C160        C  0.81417048  0.22786511  0.98131212     0.91900
O161        O  0.81893998  0.32717999  0.95886966    -0.81600
O162        O  0.87060462  0.32375355  0.85194891    -0.75200
Al163      Al  0.80956375  0.28968307  0.91844845     1.90100
O164        O  0.86954906  0.35633861  0.92856893    -0.74200
O165        O  0.92935002  0.27786437  0.86931036    -0.74100
O166        O  0.92585135  0.30675202  0.94676308    -0.79700
O167        O  0.89950750  0.22056810  0.87623876    -0.77900
O168        O  0.86047152  0.27660056  0.91522675    -1.14100
O169        O  0.82808285  0.20235607  0.90203148    -0.73300
C170        C  0.80083377  0.21722205  0.88071204     0.97400
C171        C  0.84188968  0.35672268  0.95467104     0.93800
Al172      Al  0.89606932  0.31325348  0.90048331     1.55600
O173        O  0.79438165  0.25080761  0.95919466    -0.77900
C174        C  0.92347710  0.24260050  0.85759650     0.98000
C175        C  0.83494555  0.33311258  0.84806931     0.92900
O176        O  0.81107542  0.32985814  0.87721537    -0.83200
O177        O  0.73050320  0.37171328  0.69772343    -0.82700
C178        C  0.71383536  0.46345869  0.55928530     0.96700
O179        O  0.74696946  0.45055849  0.57183155    -0.71800
O180        O  0.75904671  0.47324562  0.64630986    -0.75400
Al181      Al  0.76007068  0.42269208  0.62198012     1.49000
C182        C  0.75566156  0.47693563  0.68355905     0.91900
O183        O  0.65831231  0.45229604  0.67778380    -0.81600
O184        O  0.66403620  0.35050171  0.61953888    -0.75200
Al185      Al  0.69543176  0.41194848  0.68586271     1.90100
O186        O  0.62998607  0.42620289  0.62563605    -0.74200
O187        O  0.71163102  0.37225753  0.56326062    -0.74100
O188        O  0.68211623  0.44878389  0.57254584    -0.79700
O189        O  0.76656513  0.37276390  0.59716422    -0.77900
O190        O  0.71007842  0.41201593  0.63520763    -1.14100
O191        O  0.78334797  0.39824127  0.67030678    -0.73300
C192        C  0.76732106  0.37636962  0.69714627     0.97400
C193        C  0.62935249  0.45062908  0.65455271     0.93800
Al194      Al  0.67470678  0.40049966  0.59809656     1.55600
O195        O  0.73310667  0.45321187  0.70290618    -0.77900
C196        C  0.74522478  0.35720940  0.57081009     0.98000
C197        C  0.65402224  0.34299921  0.65470994     0.92900
O198        O  0.65627279  0.36943828  0.68139701    -0.83200
O199        O  0.29968002  0.19526866  0.08288559    -0.82700
C200        C  0.43998200  0.17975688  0.99505864     0.96700
O201        O  0.42596360  0.21295123  0.00641204    -0.71800
O202        O  0.35313695  0.22631117  0.98247148    -0.75400
Al203      Al  0.37611387  0.22623749  0.03370317     1.49000
C204        C  0.31618881  0.22369864  0.97851956     0.91900
O205        O  0.32229456  0.12684189  0.99985689    -0.81600
O206        O  0.37357931  0.12891525  0.10644077    -0.75200
Al207      Al  0.31248384  0.16190730  0.04140090     1.90100
O208        O  0.37175099  0.09612182  0.02875742    -0.74200
O209        O  0.43191318  0.17613958  0.08782149    -0.74100
O210        O  0.42753806  0.14782026  0.01017623    -0.79700
O211        O  0.39990314  0.23230723  0.08360251    -0.77900
O212        O  0.36275790  0.17615783  0.04371250    -1.14100
O213        O  0.32766357  0.24911664  0.05844153    -0.73300
C214        C  0.30081192  0.23237883  0.07981345     0.97400
C215        C  0.34392539  0.09666300  0.00309303     0.93800
Al216      Al  0.39859131  0.14005221  0.05709767     1.55600
O217        O  0.29651085  0.20114007  0.00176243    -0.77900
C218        C  0.42518742  0.21095987  0.10059965     0.98000
C219        C  0.33834286  0.11753534  0.11046965     0.92900
O220        O  0.31499885  0.12045283  0.08130650    -0.83200
O221        O  0.11713062  0.25976327  0.20236715    -0.82700
C222        C  0.03510646  0.40164821  0.17657417     0.96700
O223        O  0.04550620  0.38888322  0.21069768    -0.71800
O224        O  0.01981707  0.31711706  0.22862589    -0.75400
Al225      Al  0.07128056  0.33959092  0.22738948     1.49000
C226        C  0.01445278  0.28011378  0.22785900     0.91900
O227        O  0.03842980  0.28102452  0.12778915    -0.81600
O228        O  0.14477571  0.33204344  0.13094748    -0.75200
Al229      Al  0.07796360  0.27236377  0.16633424     1.90100
O230        O  0.06924692  0.33042433  0.09727423    -0.74200
O231        O  0.12801702  0.39244544  0.17495175    -0.74100
O232        O  0.05095267  0.38838880  0.14545787    -0.79700
O233        O  0.12163721  0.36313391  0.23281987    -0.77900
O234        O  0.08162411  0.32358840  0.17798141    -1.14100
O235        O  0.09410243  0.29242891  0.25384432    -0.73300
C236        C  0.11450169  0.26412449  0.23942380     0.97400
C237        C  0.04321085  0.30284451  0.09731521     0.93800
Al238      Al  0.09683436  0.35812196  0.14018704     1.55600
O239        O  0.03636655  0.25914895  0.20545999    -0.77900
C240        C  0.14040732  0.38648683  0.21010385     0.98000
C241        C  0.14895937  0.29608220  0.12272428     0.92900
O242        O  0.12013016  0.27208345  0.12669353    -0.83200
O243        O  0.23705197  0.08366936  0.26644882    -0.82700
C244        C  0.21234694  0.99282232  0.40324755     0.96700
O245        O  0.24592165  0.00561568  0.39109417    -0.71800
O246        O  0.25977691  0.98125723  0.31786373    -0.75400
Al247      Al  0.26151833  0.03214505  0.34125119     1.49000
C248        C  0.25837526  0.97755312  0.28051013     0.91900
O249        O  0.16161807  0.00377767  0.28198461    -0.81600
O250        O  0.16639465  0.10638702  0.33947638    -0.75200
Al251      Al  0.20027209  0.04344959  0.27579515     1.90100
O252        O  0.13163211  0.03004507  0.33379335    -0.74200
O253        O  0.21145918  0.08443602  0.39775241    -0.74100
O254        O  0.18088904  0.00766941  0.39007769    -0.79700
O255        O  0.26805936  0.08234379  0.36535196    -0.77900
O256        O  0.21217591  0.04326773  0.32680255    -1.14100
O257        O  0.28801230  0.05459208  0.29278731    -0.73300
C258        C  0.27312868  0.07555325  0.26508735     0.97400
C259        C  0.13149855  0.00624880  0.30424993     0.93800
Al260      Al  0.17534678  0.05596176  0.36260401     1.55600
O261        O  0.23753132  0.00155928  0.26036090    -0.77900
C262        C  0.24590930  0.09857959  0.39095911     0.98000
C263        C  0.15926331  0.11334415  0.30350230     0.92900
O264        O  0.16191585  0.08579280  0.27814682    -0.83200
O265        O  0.11542962  0.17853670  0.62076779    -0.82700
C266        C  0.03188742  0.05304169  0.68240605     0.96700
O267        O  0.04515366  0.06593158  0.64969483    -0.71800
O268        O  0.06340005  0.12093720  0.59707634    -0.75400
Al269      Al  0.09160383  0.09436551  0.64072127     1.49000
C270        C  0.03797324  0.14888342  0.59711891     0.91900
O271        O  0.03611169  0.19622068  0.70194046    -0.81600
O272        O  0.09537029  0.16590693  0.74970326    -0.75200
Al273      Al  0.07563210  0.18112896  0.66234610     1.90100
O274        O  0.02033251  0.13946377  0.72955964    -0.74200
O275        O  0.12240871  0.09390894  0.73148847    -0.74100
O276        O  0.04497715  0.06655597  0.71519031    -0.79700
O277        O  0.12269524  0.06048012  0.67593745    -0.77900
O278        O  0.07921116  0.13066823  0.67699016    -1.14100
O279        O  0.13975790  0.11901990  0.62887327    -0.73300
C280        C  0.14393496  0.15434076  0.61767039     0.97400
C281        C  0.01485329  0.17635553  0.72617983     0.93800
Al282      Al  0.07156031  0.11707246  0.72751922     1.55600
O283        O  0.03413998  0.17066248  0.62724301    -0.77900
C284        C  0.13807885  0.06807427  0.70941990     0.98000
C285        C  0.11476393  0.19395164  0.73272317     0.92900
O286        O  0.11678637  0.19570431  0.69542380    -0.83200
O287        O  0.15735075  0.37510594  0.77745312    -0.82700
C288        C  0.21128948  0.45706678  0.90687824     0.96700
O289        O  0.17959592  0.44226882  0.89420748    -0.71800
O290        O  0.12907536  0.42451133  0.83792938    -0.75400
Al291      Al  0.17313416  0.39662145  0.86360790     1.49000
C292        C  0.12861260  0.45137822  0.81098737     0.91900
O293        O  0.23417420  0.45992942  0.76417912    -0.81600
O294        O  0.28390166  0.40042423  0.79378418    -0.75200
Al295      Al  0.19636653  0.41758351  0.77737679     1.90100
O296        O  0.25942359  0.47405305  0.82181895    -0.74200
O297        O  0.26542174  0.37044570  0.86447312    -0.74100
O298        O  0.24466571  0.44584164  0.89321915    -0.79700
O299        O  0.20893009  0.36552392  0.89631624    -0.77900
O300        O  0.20967889  0.41218890  0.82801489    -1.14100
O301        O  0.16334663  0.34875772  0.83685094    -0.73300
C302        C  0.15456330  0.34541227  0.80078544     0.97400
C303        C  0.25673269  0.48134095  0.78519507     0.93800
Al304      Al  0.25929524  0.42173120  0.84252144     1.55600
O305        O  0.15871091  0.45685260  0.78911134    -0.77900
C306        C  0.24354620  0.35262803  0.88941392     0.98000
C307        C  0.26882934  0.38109195  0.76519071     0.92900
O308        O  0.23191134  0.37895247  0.76157867    -0.83200
O309        O  0.30810167  0.32904033  0.58653031    -0.82700
C310        C  0.43558608  0.27848671  0.49857763     0.96700
O311        O  0.42187323  0.30941316  0.51406637    -0.71800
O312        O  0.36576233  0.35854307  0.53473810    -0.75400
Al313      Al  0.39306515  0.31434548  0.56110374     1.49000
C314        C  0.33798313  0.35941616  0.50926525     0.91900
O315        O  0.29370536  0.25292771  0.50181174    -0.81600
O316        O  0.32487358  0.20257376  0.55641195    -0.75200
Al317      Al  0.30763258  0.29046359  0.54401639     1.90100
O318        O  0.35128518  0.23003391  0.48309120    -0.74200
O319        O  0.39571692  0.22101230  0.58548832    -0.74100
O320        O  0.42323719  0.24442278  0.50987149    -0.79700
O321        O  0.42692422  0.27787665  0.59070481    -0.77900
O322        O  0.35820324  0.27783216  0.54626426    -1.14100
O323        O  0.36787568  0.32286325  0.61025100    -0.73300
C324        C  0.33217862  0.33179246  0.61508606     0.97400
C325        C  0.31423201  0.23115241  0.47885157     0.93800
Al326      Al  0.37314905  0.22846245  0.53495295     1.55600
O327        O  0.31635488  0.32917679  0.50448346    -0.77900
C328        C  0.42075603  0.24250203  0.60278271     0.98000
C329        C  0.29644356  0.21748282  0.57631972     0.92900
O330        O  0.29608121  0.25382559  0.58378866    -0.83200
O331        O  0.65805337  0.08201313  0.18637876    -0.82700
C332        C  0.71057759  0.99109754  0.06160174     0.96700
O333        O  0.67935249  0.00752136  0.07348532    -0.71800
O334        O  0.63001204  0.02871848  0.12962484    -0.75400
Al335      Al  0.67401814  0.05486249  0.10162384     1.49000
C336        C  0.62917639  0.00331564  0.15796992     0.91900
O337        O  0.73431050  0.99791085  0.20491977    -0.81600
O338        O  0.78426884  0.05333173  0.17027085    -0.75200
Al339      Al  0.69666459  0.03953617  0.18888618     1.90100
O340        O  0.75697505  0.97861248  0.14745456    -0.74200
O341        O  0.76696733  0.07837311  0.09780314    -0.74100
O342        O  0.74417536  0.00183040  0.07459437    -0.79700
O343        O  0.71058592  0.08375544  0.06672556    -0.77900
O344        O  0.70996554  0.04096634  0.13766702    -1.14100
O345        O  0.66495338  0.10433714  0.12537837    -0.73300
C346        C  0.65592323  0.11012115  0.16115416     0.97400
C347        C  0.75575508  0.97447673  0.18461344     0.93800
Al348      Al  0.75916089  0.02916637  0.12326987     1.55600
O349        O  0.65843611  0.99975179  0.18081174    -0.77900
C350        C  0.74584627  0.09553660  0.07236103     0.98000
C351        C  0.76962619  0.07514639  0.19749504     0.92900
O352        O  0.73277317  0.07920925  0.20043862    -0.83200
O353        O  0.80660406  0.12385687  0.37749379    -0.82700
C354        C  0.93399545  0.17531755  0.46262272     0.96700
O355        O  0.91975716  0.14437615  0.44777318    -0.71800
O356        O  0.86427739  0.09507709  0.42773208    -0.75400
Al357      Al  0.89147987  0.13939230  0.40116981     1.49000
C358        C  0.83763071  0.09426390  0.45483566     0.91900
O359        O  0.79238899  0.20030684  0.46247493    -0.81600
O360        O  0.82347231  0.25061328  0.40535569    -0.75200
Al361      Al  0.80598980  0.16250530  0.42027005     1.90100
O362        O  0.85000600  0.22446302  0.47870236    -0.74200
O363        O  0.89491973  0.23227446  0.37511279    -0.74100
O364        O  0.92199746  0.20942399  0.45127903    -0.79700
O365        O  0.92610973  0.17563792  0.37145288    -0.77900
O366        O  0.85659399  0.17579490  0.41626550    -1.14100
O367        O  0.86643414  0.13100051  0.35256657    -0.73300
C368        C  0.83073003  0.12177622  0.34835543     0.97400
C369        C  0.81307886  0.22297009  0.48418164     0.93800
Al370      Al  0.87186102  0.22528134  0.42647171     1.55600
O371        O  0.81557035  0.12401593  0.46000675    -0.77900
C372        C  0.92033088  0.21054959  0.35828829     0.98000
C373        C  0.79436948  0.23535362  0.38695582     0.92900
O374        O  0.79299991  0.19872346  0.38097710    -0.83200
O375        O  0.61588366  0.27434024  0.33609653    -0.82700
C376        C  0.53190666  0.40077910  0.27924046     0.96700
O377        O  0.54617079  0.38774033  0.31114523    -0.71800
O378        O  0.56425794  0.33127383  0.36131336    -0.75400
Al379      Al  0.59242136  0.35883935  0.31803299     1.49000
C380        C  0.53860194  0.30334365  0.36136581     0.91900
O381        O  0.53669119  0.25750159  0.25513119    -0.81600
O382        O  0.59517513  0.29011217  0.20745874    -0.75200
Al383      Al  0.57610167  0.27252814  0.29484616     1.90100
O384        O  0.51977576  0.31496609  0.23056959    -0.74200
O385        O  0.62123266  0.36182198  0.22627968    -0.74100
O386        O  0.54404519  0.38771864  0.24570988    -0.79700
O387        O  0.62331369  0.39330734  0.28291262    -0.77900
O388        O  0.57936047  0.32338444  0.28135121    -1.14100
O389        O  0.64070854  0.33391361  0.32827219    -0.73300
C390        C  0.64442035  0.29863085  0.33964973     0.97400
C391        C  0.51496964  0.27785780  0.23219425     0.93800
Al392      Al  0.57087304  0.33798829  0.23140312     1.55600
O393        O  0.53459462  0.28166138  0.33115047    -0.77900
C394        C  0.63783427  0.38654171  0.24868205     0.98000
C395        C  0.61556339  0.26263512  0.22356812     0.92900
O396        O  0.61741873  0.25996852  0.26078113    -0.83200
O397        O  0.21532477  0.62051270  0.07982370    -0.82700
C398        C  0.08896719  0.67838628  0.99833132     0.96700
O399        O  0.10049359  0.64664659  0.01439865    -0.71800
O400        O  0.15754615  0.59616375  0.03109174    -0.75400
Al401      Al  0.13115551  0.63963301  0.06001743     1.49000
C402        C  0.18489949  0.59617466  0.00445019     0.91900
O403        O  0.23293445  0.70215604  0.00110237    -0.81600
O404        O  0.20019044  0.74903870  0.06018399    -0.75200
Al405      Al  0.21712814  0.66226841  0.04041742     1.90100
O406        O  0.17620049  0.72689631  0.98381087    -0.74200
O407        O  0.12834768  0.73200774  0.08519832    -0.74100
O408        O  0.10371905  0.71171602  0.00828835    -0.79700
O409        O  0.09817417  0.67495029  0.09187458    -0.77900
O410        O  0.16663603  0.67612084  0.04486084    -1.14100
O411        O  0.15783199  0.62947753  0.10812846    -0.73300
C412        C  0.19334510  0.61892294  0.11048473     0.97400
C413        C  0.21312614  0.72518460  0.97913459     0.93800
Al414      Al  0.15281723  0.72592360  0.03521780     1.55600
O415        O  0.20610647  0.62677561  0.99901907    -0.77900
C416        C  0.10409042  0.71018871  0.10366942     0.98000
C417        C  0.22708851  0.73276023  0.08108100     0.92900
O418        O  0.23116798  0.69567768  0.08159704    -0.83200
O419        O  0.40202346  0.76936345  0.13627596    -0.82700
C420        C  0.49350511  0.89785138  0.17879826     0.96700
O421        O  0.47835573  0.88286548  0.14836028    -0.71800
O422        O  0.45555077  0.82528688  0.10189690    -0.75400
Al423      Al  0.43055568  0.85491944  0.14524000     1.49000
C424        C  0.48004863  0.79658284  0.10180536     0.91900
O425        O  0.48877331  0.75680328  0.20984127    -0.81600
O426        O  0.43558425  0.79175008  0.26033924    -0.75200
Al427      Al  0.44571218  0.76933002  0.17315037     1.90100
O428        O  0.50779653  0.81569543  0.22899287    -0.74200
O429        O  0.40670196  0.86120030  0.23853837    -0.74100
O430        O  0.48149525  0.88725808  0.21324267    -0.79700
O431        O  0.40203177  0.89097529  0.18067652    -0.77900
O432        O  0.44456359  0.82086568  0.18316186    -1.14100
O433        O  0.38121139  0.83084529  0.13837708    -0.73300
C434        C  0.37481811  0.79480402  0.13192239     0.97400
C435        C  0.51238184  0.77855894  0.22939126     0.93800
Al436      Al  0.45675625  0.83802752  0.23141340     1.55600
O437        O  0.48401425  0.77537165  0.13256012    -0.77900
C438        C  0.38915107  0.88523829  0.21598929     0.98000
C439        C  0.41351715  0.76374292  0.24838295     0.92900
O440        O  0.40736273  0.75910536  0.21191476    -0.83200
O441        O  0.37021727  0.58434591  0.28027923    -0.82700
C442        C  0.31020636  0.49328354  0.40383094     0.96700
O443        O  0.34265213  0.50760935  0.39187630    -0.71800
O444        O  0.39580702  0.52877244  0.33794721    -0.75400
Al445      Al  0.35069582  0.55510990  0.36428359     1.49000
C446        C  0.39780450  0.50484006  0.30863746     0.91900
O447        O  0.29428072  0.50014521  0.25926745    -0.81600
O448        O  0.24317543  0.55505603  0.28975149    -0.75200
Al449      Al  0.33153513  0.54166448  0.27633436     1.90100
O450        O  0.26696209  0.48080834  0.31546589    -0.74200
O451        O  0.25887619  0.58221126  0.36237437    -0.74100
O452        O  0.27761918  0.50548243  0.38951633    -0.79700
O453        O  0.31313591  0.58459847  0.39739194    -0.77900
O454        O  0.31608765  0.54226219  0.32673438    -1.14100
O455        O  0.36167708  0.60455537  0.34150884    -0.73300
C456        C  0.37146352  0.61154007  0.30617977     0.97400
C457        C  0.27079905  0.47706903  0.27822096     0.93800
Al458      Al  0.26568101  0.53192672  0.33891389     1.55600
O459        O  0.36903981  0.50177606  0.28515448    -0.77900
C460        C  0.27941867  0.59877867  0.38867196     0.98000
C461        C  0.26009510  0.57589375  0.26278036     0.92900
O462        O  0.29663579  0.58159023  0.26421770    -0.83200
O463        O  0.70963614  0.83289322  0.88286570    -0.82700
C464        C  0.58297771  0.77236317  0.96487777     0.96700
O465        O  0.59607832  0.80473520  0.95130025    -0.71800
O466        O  0.65212784  0.85651788  0.93455720    -0.75400
Al467      Al  0.62552227  0.81339836  0.90513994     1.49000
C468        C  0.67899571  0.85533098  0.96112379     0.91900
O469        O  0.72589456  0.75022362  0.96101466    -0.81600
O470        O  0.69544170  0.70408381  0.90073133    -0.75200
Al471      Al  0.71123136  0.79066562  0.92212210     1.90100
O472        O  0.66894318  0.72358782  0.97705242    -0.74200
O473        O  0.62410113  0.72265518  0.87452309    -0.74100
O474        O  0.59667678  0.73936814  0.95243772    -0.79700
O475        O  0.59209117  0.77876268  0.87313717    -0.77900
O476        O  0.66093787  0.77666032  0.91802679    -1.14100
O477        O  0.65124994  0.82489585  0.85686981    -0.73300
C478        C  0.68669384  0.83541452  0.85324899     0.97400
C479        C  0.70572286  0.72630276  0.98238508     0.93800
Al480      Al  0.64690615  0.72637525  0.92545404     1.55600
O481        O  0.70041912  0.82496185  0.96449573    -0.77900
C482        C  0.59931818  0.74505707  0.85804220     0.98000
C483        C  0.72315399  0.72128344  0.88096366     0.92900
O484        O  0.72541977  0.75843775  0.88018494    -0.83200
O485        O  0.86773013  0.86893286  0.68614666    -0.82700
C486        C  0.81487261  0.95863024  0.56077628     0.96700
O487        O  0.84672401  0.94440626  0.57374161    -0.71800
O488        O  0.89734862  0.92156332  0.62832176    -0.75400
Al489      Al  0.85256297  0.89646065  0.60135922     1.49000
C490        C  0.89868491  0.94696612  0.65622433     0.91900
O491        O  0.79320471  0.95552374  0.70271565    -0.81600
O492        O  0.74201189  0.89918787  0.67375504    -0.75200
Al493      Al  0.83021020  0.91262245  0.68810539     1.90100
O494        O  0.76816523  0.97195484  0.64518828    -0.74200
O495        O  0.76064615  0.86896920  0.60172269    -0.74100
O496        O  0.78154211  0.94522532  0.57308319    -0.79700
O497        O  0.81586483  0.86822209  0.56715398    -0.77900
O498        O  0.81662684  0.91021616  0.63768642    -1.14100
O499        O  0.86107371  0.84670398  0.62537312    -0.73300
C500        C  0.86905225  0.84063021  0.66132251     0.97400
C501        C  0.77064152  0.97763490  0.68215997     0.93800
Al502      Al  0.76695960  0.92018371  0.62398445     1.55600
O503        O  0.86888116  0.95173598  0.67851910    -0.77900
C504        C  0.78205614  0.85336778  0.57507865     0.98000
C505        C  0.75782588  0.88043454  0.70249925     0.92900
O506        O  0.79404918  0.87358289  0.70155911    -0.83200
O507        O  0.90344168  0.68029266  0.83707254    -0.82700
C508        C  0.99048959  0.55192841  0.78792292     0.96700
O509        O  0.97494936  0.56538522  0.81919456    -0.71800
O510        O  0.95475349  0.62300286  0.86735060    -0.75400
Al511      Al  0.92826633  0.59475102  0.82414090     1.49000
C512        C  0.98069925  0.65059895  0.86724085     0.91900
O513        O  0.98810903  0.69417470  0.75938954    -0.81600
O514        O  0.93142967  0.66068828  0.71053103    -0.75200
Al515      Al  0.94606752  0.68065720  0.79799580     1.90100
O516        O  0.00518686  0.63615026  0.73668767    -0.74200
O517        O  0.90318261  0.59006049  0.73164206    -0.74100
O518        O  0.97929855  0.56418083  0.75387129    -0.79700
O519        O  0.89826742  0.55979885  0.78923892    -0.77900
O520        O  0.94308000  0.62945414  0.78641362    -1.14100
O521        O  0.87967435  0.62001925  0.83250776    -0.73300
C522        C  0.87467184  0.65606051  0.83996510     0.97400
C523        C  0.01040360  0.67324512  0.73733933     0.93800
Al524      Al  0.95373512  0.61354444  0.73718179     1.55600
O525        O  0.98531589  0.67219622  0.83661778    -0.77900
C526        C  0.88515189  0.56608822  0.75445189     0.98000
C527        C  0.91078293  0.68894578  0.72460326     0.92900
O528        O  0.90704685  0.69304538  0.76157954    -0.83200
C529        C  0.90653066  0.77693056  0.65449237    -0.27200
C530        C  0.87771578  0.79963085  0.67444929    -0.15300
C531        C  0.85469297  0.78155119  0.70471283     0.35400
C532        C  0.86252837  0.74255897  0.71642563    -0.26600
C533        C  0.89430943  0.72131558  0.69991310    -0.15900
C534        C  0.91549694  0.73806984  0.66747567     0.36500
N535        N  0.94734610  0.71676438  0.64911923    -0.90100
H536        H  0.92331488  0.79001681  0.63001055     0.17600
H537        H  0.84535085  0.72983314  0.74082826     0.17600
N538        N  0.82326940  0.80263414  0.72393034    -0.89200
H539        H  0.97303997  0.73400425  0.65127721     0.34900
H540        H  0.94091756  0.71372196  0.61887862     0.40000
H541        H  0.82900839  0.80343519  0.75447828     0.39700
H542        H  0.79692385  0.78679104  0.71980935     0.34500
C543        C  0.73970076  0.86629833  0.81291456    -0.27200
C544        C  0.70183974  0.84972524  0.81422424    -0.15300
C545        C  0.68096448  0.84442412  0.77807709     0.35400
C546        C  0.69857147  0.85601553  0.74154581    -0.26600
C547        C  0.73715475  0.87130722  0.74051312    -0.15900
C548        C  0.75761978  0.87666155  0.77689923     0.36500
N549        N  0.79695481  0.89281114  0.77779976    -0.90100
H550        H  0.75622259  0.87062633  0.84010303     0.17600
H551        H  0.68278104  0.85144851  0.71397604     0.17600
N552        N  0.64268166  0.82591348  0.77802296    -0.89200
H553        H  0.81552759  0.87175073  0.79089222     0.34900
H554        H  0.79686169  0.91797742  0.79588578     0.40000
H555        H  0.64433326  0.80040581  0.76046486     0.39700
H556        H  0.62276399  0.84551192  0.76469288     0.34500
C557        C  0.76822006  0.66250365  0.87837469    -0.27200
C558        C  0.75719574  0.69978114  0.86319513    -0.15300
C559        C  0.78410108  0.72053761  0.83780781     0.35400
C560        C  0.82251611  0.70628519  0.83216741    -0.26600
C561        C  0.83436012  0.67033191  0.84920189    -0.15900
C562        C  0.80636938  0.64728151  0.87088309     0.36500
N563        N  0.81697457  0.60911906  0.88648057    -0.90100
H564        H  0.74808980  0.64610262  0.89777752     0.17600
H565        H  0.84307975  0.72330212  0.81378539     0.17600
N566        N  0.77281399  0.75673703  0.81826573    -0.89200
H567        H  0.79747390  0.58807161  0.87478556     0.34900
H568        H  0.81288535  0.60955858  0.91739203     0.40000
H569        H  0.77624361  0.75287289  0.78754620     0.39700
H570        H  0.79218805  0.77929564  0.82708556     0.34500
C571        C  0.55324872  0.74798073  0.02895069    -0.27200
C572        C  0.55224990  0.77454932  0.99673175    -0.15300
C573        C  0.52542975  0.80672212  0.99809542     0.35400
C574        C  0.50173077  0.81280926  0.03208338    -0.26600
C575        C  0.50407760  0.78749407  0.06536143    -0.15900
C576        C  0.52969030  0.75415875  0.06317864     0.36500
N577        N  0.53261590  0.72673203  0.09581894    -0.90100
H578        H  0.57385235  0.72336398  0.02847434     0.17600
H579        H  0.48198101  0.83810684  0.03258476     0.17600
N580        N  0.52236994  0.83364634  0.96501552    -0.89200
H581        H  0.56208136  0.72626231  0.10515568     0.34900
H582        H  0.52535938  0.69840870  0.08546850     0.40000
H583        H  0.52889894  0.86226359  0.97506053     0.39700
H584        H  0.49302171  0.83337154  0.95531925     0.34500
C585        C  0.41611762  0.67050581  0.30887418    -0.27200
C586        C  0.38121054  0.65269178  0.29517445    -0.15300
C587        C  0.35312388  0.67598233  0.27517386     0.35400
C588        C  0.36207620  0.71526354  0.26514756    -0.26600
C589        C  0.39878584  0.73194967  0.27476097    -0.15900
C590        C  0.42524285  0.71025090  0.29880973     0.36500
N591        N  0.46225597  0.72763696  0.31047555    -0.90100
H592        H  0.43667242  0.65308306  0.32631143     0.17600
H593        H  0.34142374  0.73188099  0.24699624     0.17600
N594        N  0.31546856  0.65980076  0.26462998    -0.89200
H595        H  0.47864212  0.70741481  0.32731422     0.34900
H596        H  0.45582235  0.75149904  0.32922451     0.40000
H597        H  0.31256014  0.66220194  0.23372997     0.39700
H598        H  0.29337999  0.67703699  0.27795014     0.34500
C599        C  0.02970450  0.64465588  0.97006181    -0.27200
C600        C  0.05820076  0.67516527  0.96703676    -0.15300
C601        C  0.05946542  0.69855581  0.93221004     0.35400
C602        C  0.03348870  0.69034171  0.90077575    -0.26600
C603        C  0.00582147  0.65879909  0.90293840    -0.15900
C604        C  0.00355531  0.63638307  0.93888457     0.36500
N605        N  0.97553448  0.60478361  0.94481639    -0.90100
H606        H  0.02818258  0.62643752  0.99679354     0.17600
H607        H  0.03587962  0.70841701  0.87402401     0.17600
N608        N  0.08856699  0.72926663  0.92752356    -0.89200
H609        H  0.98061941  0.58291879  0.92341383     0.34900
H610        H  0.94694712  0.61615213  0.94169057     0.40000
H611        H  0.07380163  0.75602239  0.92234480     0.39700
H612        H  0.10535564  0.72275639  0.90208326     0.34500
C613        C  0.31688027  0.75122095  0.14243890    -0.27200
C614        C  0.33463346  0.78233933  0.12091140    -0.15300
C615        C  0.31276099  0.80281434  0.09162315     0.35400
C616        C  0.27469407  0.78904278  0.08172825    -0.26600
C617        C  0.25824332  0.75576635  0.10114852    -0.15900
C618        C  0.27846880  0.73839556  0.13356612     0.36500
N619        N  0.26037007  0.70663863  0.15622019    -0.90100
H620        H  0.33304855  0.73694703  0.16630767     0.17600
H621        H  0.25926899  0.80233916  0.05683722     0.17600
N622        N  0.32993574  0.83632201  0.07093719    -0.89200
H623        H  0.23509466  0.71803291  0.17018514     0.34900
H624        H  0.27916747  0.69702901  0.17888064     0.40000
H625        H  0.30997569  0.84796392  0.05033161     0.39700
H626        H  0.35432948  0.82610797  0.05458400     0.34500
C627        C  0.18411720  0.59837321  0.18203469    -0.27200
C628        C  0.20967082  0.60647223  0.14938141    -0.15300
C629        C  0.25086883  0.60562933  0.15520664     0.35400
C630        C  0.26557580  0.59748998  0.19283964    -0.26600
C631        C  0.24048499  0.58896613  0.22562238    -0.15900
C632        C  0.19918264  0.58919056  0.22012309     0.36500
N633        N  0.17286492  0.57995001  0.25279852    -0.90100
H634        H  0.15234677  0.59914336  0.17785041     0.17600
H635        H  0.29751104  0.59675558  0.19572961     0.17600
N636        N  0.27830765  0.61322848  0.12312936    -0.89200
H637        H  0.14338595  0.58105543  0.24358094     0.34900
H638        H  0.17628054  0.60215701  0.27416030     0.40000
H639        H  0.29637315  0.58827490  0.11985292     0.39700
H640        H  0.29634349  0.63723343  0.13089258     0.34500
C641        C  0.43476799  0.45602594  0.26619229    -0.27200
C642        C  0.43400111  0.48057772  0.30022737    -0.15300
C643        C  0.46774553  0.48132885  0.32471894     0.35400
C644        C  0.50015330  0.45661673  0.31594283    -0.26600
C645        C  0.50013611  0.43108906  0.28280525    -0.15900
C646        C  0.46731379  0.43150604  0.25737272     0.36500
N647        N  0.46600141  0.40573521  0.22360801    -0.90100
H648        H  0.40958608  0.45512074  0.24643867     0.17600
H649        H  0.52527987  0.45679668  0.33582445     0.17600
N650        N  0.46925666  0.50661686  0.35883856    -0.89200
H651        H  0.46205686  0.42325668  0.19812952     0.34900
H652        H  0.44128812  0.38711190  0.22681905     0.40000
H653        H  0.49377041  0.52549298  0.35553674     0.39700
H654        H  0.47368823  0.48881447  0.38403849     0.34500
C655        C  0.85085611  0.99313598  0.50541698    -0.27200
C656        C  0.81778144  0.99152497  0.53119292    -0.15300
C657        C  0.79095222  0.02340930  0.53112543     0.35400
C658        C  0.79776591  0.05622701  0.50577543    -0.26600
C659        C  0.83121144  0.05818965  0.48027477    -0.15900
C660        C  0.85776068  0.02586688  0.48008533     0.36500
N661        N  0.89226898  0.02627261  0.45491216    -0.90100
H662        H  0.87200477  0.96898422  0.50533361     0.17600
H663        H  0.77688498  0.08057599  0.50659675     0.17600
N664        N  0.75774980  0.02351397  0.55801338    -0.89200
H665        H  0.89099592  0.00146725  0.43636036     0.34900
H666        H  0.91718457  0.02341452  0.47296284     0.40000
H667        H  0.73197776  0.02628253  0.54120596     0.39700
H668        H  0.76009620  0.04857779  0.57610398     0.34500
C669        C  0.72222691  0.23826610  0.39217245    -0.27200
C670        C  0.75741786  0.25690360  0.37899064    -0.15300
C671        C  0.75521796  0.29183107  0.35601176     0.35400
C672        C  0.71787121  0.30611964  0.34485516    -0.26600
C673        C  0.68273377  0.28578807  0.35609528    -0.15900
C674        C  0.68514974  0.25229430  0.38104473     0.36500
N675        N  0.65010448  0.23223921  0.39503900    -0.90100
H676        H  0.72348634  0.21173254  0.41059418     0.17600
H677        H  0.71644165  0.33219715  0.32582034     0.17600
N678        N  0.79015035  0.31200860  0.34208908    -0.89200
H679        H  0.65024781  0.23232153  0.42619801     0.34900
H680        H  0.65139516  0.20271568  0.38561556     0.40000
H681        H  0.80705736  0.29203923  0.32538708     0.39700
H682        H  0.80663286  0.32043912  0.36688309     0.34500
C683        C  0.56520148  0.97483148  0.13443959    -0.27200
C684        C  0.59359277  0.97765536  0.16455702    -0.15300
C685        C  0.58768241  0.95538932  0.20010783     0.35400
C686        C  0.55422718  0.93073043  0.20446092    -0.26600
C687        C  0.52647364  0.92699806  0.17384117    -0.15900
C688        C  0.53226461  0.94965739  0.13834379     0.36500
N689        N  0.50527235  0.94818694  0.10567209    -0.90100
H690        H  0.56903009  0.99161812  0.10699626     0.17600
H691        H  0.55061142  0.91353580  0.23168754     0.17600
N692        N  0.61545623  0.95756200  0.23205099    -0.89200
H693        H  0.47672418  0.95435707  0.11621528     0.34900
H694        H  0.50594533  0.91984852  0.09315859     0.40000
H695        H  0.62612342  0.92894188  0.23755664     0.39700
H696        H  0.60036487  0.96708195  0.25758996     0.34500
C697        C  0.72081542  0.92041686  0.04398997    -0.27200
C698        C  0.70654624  0.95790279  0.03330632    -0.15300
C699        C  0.68298466  0.96172977  0.99905961     0.35400
C700        C  0.67383348  0.92808549  0.97616198    -0.26600
C701        C  0.68749667  0.89019526  0.98706934    -0.15900
C702        C  0.71125689  0.88660119  0.02160737     0.36500
N703        N  0.72489397  0.84854391  0.03491569    -0.90100
H704        H  0.73793657  0.91701894  0.07094665     0.17600
H705        H  0.65614205  0.93176102  0.94963047     0.17600
N706        N  0.66849192  0.99995541  0.98735327    -0.89200
H707        H  0.71400761  0.84361587  0.06381140     0.34900
H708        H  0.75582615  0.84949373  0.03613635     0.40000
H709        H  0.63757344  0.99841574  0.98639400     0.39700
H710        H  0.67898337  0.00608632  0.95853990     0.34500
C711        C  0.77459424  0.12294336  0.25213973    -0.27200
C712        C  0.79308749  0.09265889  0.23019851    -0.15300
C713        C  0.82706447  0.07428936  0.24632954     0.35400
C714        C  0.83896059  0.08389115  0.28513694    -0.26600
C715        C  0.81714731  0.11088682  0.30837088    -0.15900
C716        C  0.78540508  0.13129978  0.29115420     0.36500
N717        N  0.76411979  0.16086656  0.31302750    -0.90100
H718        H  0.74977321  0.13877774  0.23979366     0.17600
H719        H  0.86476222  0.06950817  0.29757484     0.17600
N720        N  0.84972116  0.04576803  0.22448367    -0.89200
H721        H  0.73425349  0.15252896  0.31427222     0.34900
H722        H  0.76627133  0.18775465  0.29735842     0.40000
H723        H  0.85944288  0.05914432  0.19792085     0.39700
H724        H  0.83149946  0.02182183  0.21745881     0.34500
C725        C  0.66635850  0.16547900  0.20720097    -0.27200
C726        C  0.64636702  0.15079378  0.17417864    -0.15300
C727        C  0.62127860  0.17634601  0.15256697     0.35400
C728        C  0.61407844  0.21513042  0.16654584    -0.26600
C729        C  0.63281604  0.22907288  0.20101668    -0.15900
C730        C  0.66110176  0.20454724  0.21983780     0.36500
N731        N  0.68372719  0.21886157  0.25279554    -0.90100
H732        H  0.68643671  0.14645794  0.22326132     0.17600
H733        H  0.59205398  0.23328239  0.15190052     0.17600
N734        N  0.60162521  0.16239602  0.11768879    -0.89200
H735        H  0.71378396  0.21641716  0.24543408     0.34900
H736        H  0.67799940  0.20045287  0.27742507     0.40000
H737        H  0.60949988  0.18116668  0.09393946     0.39700
H738        H  0.57107343  0.16488705  0.12243748     0.34500
C739        C  0.29901519  0.39371861  0.45636908    -0.27200
C740        C  0.32928588  0.39581845  0.48509057    -0.15300
C741        C  0.34947072  0.43252702  0.48973962     0.35400
C742        C  0.34075605  0.46455902  0.46443934    -0.26600
C743        C  0.31192883  0.46154863  0.43459135    -0.15900
C744        C  0.29020819  0.42588753  0.43135250     0.36500
N745        N  0.26058279  0.42061238  0.40155668    -0.90100
H746        H  0.28245710  0.36640701  0.45239055     0.17600
H747        H  0.35754646  0.49189877  0.46743397     0.17600
N748        N  0.37913338  0.43841705  0.51939340    -0.89200
H749        H  0.27369296  0.42521198  0.37356664     0.34900
H750        H  0.23846362  0.44182618  0.40591512     0.40000
H751        H  0.40251659  0.41881658  0.51411461     0.39700
H752        H  0.36661652  0.43267237  0.54746291     0.34500
C753        C  0.47038496  0.25279585  0.43799687    -0.27200
C754        C  0.46529015  0.28320927  0.46591251    -0.15300
C755        C  0.48600569  0.31953319  0.46003653     0.35400
C756        C  0.50987546  0.32516991  0.42609214    -0.26600
C757        C  0.51379974  0.29540667  0.39738307    -0.15900
C758        C  0.49429956  0.25852075  0.40390049     0.36500
N759        N  0.49872662  0.22661292  0.37617906    -0.90100
H760        H  0.45480221  0.22479959  0.44192785     0.17600
H761        H  0.52490220  0.35344077  0.42195420     0.17600
N762        N  0.48289773  0.35107533  0.48837885    -0.89200
H763        H  0.47059834  0.21876678  0.36597965     0.34900
H764        H  0.51037858  0.20217970  0.39140741     0.40000
H765        H  0.47187069  0.37616311  0.47373801     0.39700
H766        H  0.51134293  0.35780867  0.49847524     0.34500
C767        C  0.23286782  0.52301064  0.93160852    -0.27200
C768        C  0.20833676  0.48966415  0.93621102    -0.15300
C769        C  0.17741280  0.49060037  0.96480733     0.35400
C770        C  0.17044699  0.52528934  0.98687329    -0.26600
C771        C  0.19363172  0.55963877  0.98085145    -0.15900
C772        C  0.22574255  0.55791404  0.95322808     0.36500
N773        N  0.25096817  0.59163817  0.94626027    -0.90100
H774        H  0.25653055  0.52278545  0.90956190     0.17600
H775        H  0.14635502  0.52536417  0.00843932     0.17600
N776        N  0.15289055  0.45630240  0.97147490    -0.89200
H777        H  0.24953225  0.59921189  0.91603905     0.34900
H778        H  0.28008818  0.58332648  0.95247698     0.40000
H779        H  0.12351205  0.46429954  0.96610746     0.39700
H780        H  0.15509682  0.44809067  0.00147380     0.34500
C781        C  0.06026805  0.47385831  0.83079548    -0.27200
C782        C  0.09242356  0.47596948  0.80393197    -0.15300
C783        C  0.08920096  0.50138137  0.77016606     0.35400
C784        C  0.05487137  0.52414437  0.76444551    -0.26600
C785        C  0.02344311  0.52294619  0.79194044    -0.15900
C786        C  0.02613890  0.49712082  0.82524600     0.36500
N787        N  0.99416662  0.49424694  0.85352305    -0.90100
H788        H  0.06169814  0.45443983  0.85661644     0.17600
H789        H  0.05353292  0.54409109  0.73900811     0.17600
N790        N  0.12077407  0.50461751  0.74148360    -0.89200
H791        H  0.00508183  0.50171603  0.88156753     0.34900
H792        H  0.98461924  0.46466323  0.85469489     0.40000
H793        H  0.12990673  0.53432579  0.74007667     0.39700
H794        H  0.10968069  0.49681788  0.71360830     0.34500
C795        C  0.27441700  0.33237030  0.71145369    -0.27200
C796        C  0.29242696  0.36348521  0.73242981    -0.15300
C797        C  0.32631320  0.38225398  0.71557245     0.35400
C798        C  0.33918746  0.37155834  0.67718842    -0.26600
C799        C  0.31828952  0.34319112  0.65502763    -0.15900
C800        C  0.28630216  0.32283733  0.67281676     0.36500
N801        N  0.26585577  0.29219470  0.65181038    -0.90100
H802        H  0.24929525  0.31671123  0.72430997     0.17600
H803        H  0.36483950  0.38631094  0.66412242     0.17600
N804        N  0.34745758  0.41278534  0.73600597    -0.89200
H805        H  0.23592335  0.29985637  0.65022410     0.34900
H806        H  0.26814635  0.26581011  0.66820889     0.40000
H807        H  0.35735447  0.40106844  0.76302299     0.39700
H808        H  0.32799307  0.43596540  0.74214539     0.34500
C809        C  0.96967289  0.20026056  0.52253576    -0.27200
C810        C  0.96405752  0.17026595  0.49440409    -0.15300
C811        C  0.98457090  0.13383846  0.49930097     0.35400
C812        C  0.00880487  0.12776410  0.53250268    -0.26600
C813        C  0.01318464  0.15711541  0.56151167    -0.15900
C814        C  0.99384371  0.19408175  0.55589944     0.36500
N815        N  0.99862496  0.22566522  0.58388401    -0.90100
H816        H  0.95424953  0.22827122  0.51940014     0.17600
H817        H  0.02365813  0.09947295  0.53589668     0.17600
N818        N  0.98082649  0.10259066  0.47074025    -0.89200
H819        H  0.97061602  0.23325699  0.59494483     0.34900
H820        H  0.01027641  0.25033229  0.56865111     0.40000
H821        H  0.96984387  0.07735558  0.48551973     0.39700
H822        H  0.00906930  0.09598794  0.45963619     0.34500
C823        C  0.00136408  0.99565064  0.64801494    -0.27200
C824        C  0.00054619  0.02197085  0.68047416    -0.15300
C825        C  0.96714698  0.02154448  0.70603519     0.35400
C826        C  0.93517085  0.99623810  0.69784467    -0.26600
C827        C  0.93507308  0.97111427  0.66423422    -0.15900
C828        C  0.96939511  0.97048962  0.63959895     0.36500
N829        N  0.97264483  0.94556031  0.60529816    -0.90100
H830        H  0.02680174  0.99549223  0.62803935     0.17600
H831        H  0.90965396  0.99717447  0.71764274     0.17600
N832        N  0.96379168  0.04790733  0.73921187    -0.89200
H833        H  0.94998108  0.95269413  0.58551828     0.34900
H834        H  0.96984666  0.91590461  0.61437513     0.40000
H835        H  0.96622894  0.07710670  0.72866776     0.39700
H836        H  0.98708799  0.04223993  0.75870700     0.34500
C837        C  0.11297236  0.24039449  0.79082697    -0.27200
C838        C  0.13062886  0.22867952  0.75466664    -0.15300
C839        C  0.15713700  0.25527832  0.73515866     0.35400
C840        C  0.16264333  0.29365218  0.74987474    -0.26600
C841        C  0.14419953  0.30580166  0.78515294    -0.15900
C842        C  0.11993844  0.27859786  0.80640064     0.36500
N843        N  0.10096860  0.29026363  0.84280349    -0.90100
H844        H  0.09206497  0.22080201  0.80591486     0.17600
H845        H  0.18198755  0.31398095  0.73380148     0.17600
N846        N  0.17833838  0.24356198  0.69995849    -0.89200
H847        H  0.10960417  0.27047156  0.86520080     0.34900
H848        H  0.07035130  0.28738132  0.83920519     0.40000
H849        H  0.20862700  0.24616053  0.70560173     0.39700
H850        H  0.17127787  0.26328657  0.67691961     0.34500
C851        C  0.22463608  0.21679837  0.57088432    -0.27200
C852        C  0.25882574  0.19655768  0.58311994    -0.15300
C853        C  0.25512234  0.16019927  0.60351659     0.35400
C854        C  0.21712248  0.14576255  0.61287696    -0.26600
C855        C  0.18290411  0.16745626  0.60248710    -0.15900
C856        C  0.18695386  0.20283384  0.58048815     0.36500
N857        N  0.15301225  0.22508268  0.56824470    -0.90100
H858        H  0.22707569  0.24453512  0.55446226     0.17600
H859        H  0.21445418  0.11843307  0.62996564     0.17600
N860        N  0.28909689  0.13864861  0.61669732    -0.89200
H861        H  0.15395409  0.22787606  0.53720082     0.34900
H862        H  0.15510604  0.25353984  0.58041006     0.40000
H863        H  0.30574564  0.15720073  0.63504999     0.39700
H864        H  0.30637515  0.13166521  0.59171252     0.34500
C865        C  0.30674008  0.92228705  0.28530455    -0.27200
C866        C  0.28610428  0.94896448  0.26086999    -0.15300
C867        C  0.29774617  0.95243319  0.22026148     0.35400
C868        C  0.33115772  0.93127891  0.20614237    -0.26600
C869        C  0.35319559  0.90642410  0.23145690    -0.15900
C870        C  0.33981763  0.90135962  0.27134099     0.36500
N871        N  0.36016097  0.87571162  0.29849996    -0.90100
H872        H  0.29829081  0.91878825  0.31636835     0.17600
H873        H  0.34030945  0.93470724  0.17528283     0.17600
N874        N  0.27675909  0.97847334  0.19379928    -0.89200
H875        H  0.34006393  0.85430106  0.30907543     0.34900
H876        H  0.36949655  0.89265355  0.32270845     0.40000
H877        H  0.24824089  0.96679042  0.19042331     0.39700
H878        H  0.28988710  0.97868432  0.16545471     0.34500
C879        C  0.29872600  0.15001243  0.40157649    -0.27200
C880        C  0.26119769  0.13455705  0.41248242    -0.15300
C881        C  0.23959463  0.15418731  0.44294390     0.35400
C882        C  0.25647327  0.18742350  0.46217002    -0.26600
C883        C  0.29456243  0.20176974  0.45207706    -0.15900
C884        C  0.31544777  0.18292222  0.42096484     0.36500
N885        N  0.35398942  0.19681860  0.40907704    -0.90100
H886        H  0.31579665  0.13618748  0.37797860     0.17600
H887        H  0.24030257  0.20119466  0.48639334     0.17600
N888        N  0.20113559  0.13993007  0.45518843    -0.89200
H889        H  0.35311779  0.20428737  0.37880851     0.34900
H890        H  0.37398823  0.17343564  0.41255530     0.40000
H891        H  0.18168062  0.14544555  0.43175432     0.39700
H892        H  0.19044760  0.15612804  0.47948399     0.34500
C893        C  0.99209524  0.22123672  0.26883766    -0.27200
C894        C  0.98638885  0.26111450  0.25733108    -0.15300
C895        C  0.95809518  0.28361161  0.27872405     0.35400
C896        C  0.93686570  0.26635308  0.31079834    -0.26600
C897        C  0.94331390  0.22681607  0.32312386    -0.15900
C898        C  0.97125839  0.20412181  0.30142104     0.36500
N899        N  0.97931908  0.16386631  0.31264102    -0.90100
H900        H  0.01423728  0.20355031  0.25361373     0.17600
H901        H  0.91555299  0.28456111  0.32657806     0.17600
N902        N  0.95106907  0.32435464  0.26847509    -0.89200
H903        H  0.00948186  0.16169534  0.31913174     0.34900
H904        H  0.97354519  0.14574735  0.28816462     0.40000
H905        H  0.92105136  0.32748195  0.26177749     0.39700
H906        H  0.95708368  0.34171643  0.29345223     0.34500
C907        C  0.12465626  0.17873957  0.31288254    -0.27200
C908        C  0.15029812  0.15439053  0.29052001    -0.15300
C909        C  0.16947561  0.17041505  0.25667220     0.35400
C910        C  0.16169345  0.20928137  0.24483295    -0.26600
C911        C  0.13242069  0.23208408  0.26380153    -0.15900
C912        C  0.11480216  0.21735891  0.29932698     0.36500
N913        N  0.08553124  0.24042291  0.32006092    -0.90100
H914        H  0.11085412  0.16690819  0.33974177     0.17600
H915        H  0.17650552  0.22051973  0.21832716     0.17600
N916        N  0.19666345  0.14719537  0.23365721    -0.89200
H917        H  0.07471229  0.22481920  0.34494787     0.34900
H918        H  0.09969661  0.26579846  0.33084797     0.40000
H919        H  0.22404572  0.16183710  0.23305350     0.39700
H920        H  0.18626290  0.14571511  0.20444701     0.34500
C921        C  0.22553443  0.41809406  0.27833272    -0.27200
C922        C  0.24323946  0.44951551  0.25693002    -0.15300
C923        C  0.22900735  0.45797149  0.21822166     0.35400
C924        C  0.19623678  0.43674490  0.20300477    -0.26600
C925        C  0.17700108  0.40682572  0.22553782    -0.15900
C926        C  0.19327509  0.39659420  0.26309420     0.36500
N927        N  0.17709819  0.36447197  0.28637334    -0.90100
H928        H  0.23608258  0.41074348  0.30786213     0.17600
H929        H  0.18515264  0.44461327  0.17382066     0.17600
N930        N  0.24643086  0.48931685  0.19483796    -0.89200
H931        H  0.16803311  0.37567831  0.31396579     0.34900
H932        H  0.19960433  0.34381632  0.29133013     0.40000
H933        H  0.22426255  0.50982205  0.18811709     0.39700
H934        H  0.25656742  0.47717735  0.16803822     0.34500
C935        C  0.29803158  0.30356159  0.90011098    -0.27200
C936        C  0.25964480  0.31671290  0.91043625    -0.15300
C937        C  0.23842989  0.29510314  0.94028204     0.35400
C938        C  0.25647677  0.26303053  0.95991346    -0.26600
C939        C  0.29556789  0.25153376  0.95096927    -0.15900
C940        C  0.31600890  0.27155992  0.91994323     0.36500
N941        N  0.35532213  0.25988386  0.90869969    -0.90100
H942        H  0.31484300  0.31863452  0.87682775     0.17600
H943        H  0.24030497  0.24828243  0.98386732     0.17600
N944        N  0.19889664  0.30522520  0.95211147    -0.89200
H945        H  0.37414918  0.28433808  0.91220359     0.34900
H946        H  0.35521929  0.25243853  0.87849641     0.40000
H947        H  0.18052210  0.30323342  0.92729194     0.39700
H948        H  0.19881260  0.33432425  0.96277490     0.34500
C949        C  0.25311010  0.28911425  0.07867744    -0.27200
C950        C  0.26630438  0.25383460  0.09669283    -0.15300
C951        C  0.24099352  0.23406214  0.12442094     0.35400
C952        C  0.20230240  0.24735715  0.13043681    -0.26600
C953        C  0.18867419  0.28165128  0.11158682    -0.15900
C954        C  0.21469409  0.30353075  0.08653427     0.36500
N955        N  0.20168215  0.33949964  0.06788986    -0.90100
H956        H  0.27175426  0.30443405  0.05701126     0.17600
H957        H  0.18295142  0.23104570  0.15062192     0.17600
N958        N  0.25420814  0.19980607  0.14610142    -0.89200
H959        H  0.20423392  0.33606042  0.03705244     0.34900
H960        H  0.22086103  0.36237135  0.07630241     0.40000
H961        H  0.25165103  0.20581517  0.17653657     0.39700
H962        H  0.23529467  0.17605640  0.13967381     0.34500
C963        C  0.34833464  0.10432501  0.18374577    -0.27200
C964        C  0.32392981  0.10230461  0.14970305    -0.15300
C965        C  0.28472740  0.08858030  0.15439238     0.35400
C966        C  0.27003279  0.07992010  0.19230429    -0.26600
C967        C  0.29340952  0.08374860  0.22655406    -0.15900
C968        C  0.33337795  0.09469583  0.22211338     0.36500
N969        N  0.35832368  0.09730125  0.25624651    -0.90100
H970        H  0.37876405  0.11438273  0.18081213     0.17600
H971        H  0.23953475  0.06996944  0.19471356     0.17600
N972        N  0.25926339  0.08353159  0.12084599    -0.89200
H973        H  0.38231939  0.07823314  0.25182814     0.34900
H974        H  0.36935044  0.12632407  0.25774526     0.40000
H975        H  0.23423910  0.10128916  0.12503073     0.39700
H976        H  0.24999552  0.05385876  0.12023459     0.34500
C977        C  0.46521206  0.28343250  0.17807128    -0.27200
C978        C  0.48762290  0.25870424  0.20301160    -0.15300
C979        C  0.48796244  0.21744460  0.19501991     0.35400
C980        C  0.46758374  0.20231860  0.16171753    -0.26600
C981        C  0.44655318  0.22749973  0.13586701    -0.15900
C982        C  0.44514559  0.26857088  0.14489361     0.36500
N983        N  0.42432857  0.29592241  0.11984675    -0.90100
H984        H  0.46435652  0.31516668  0.18329347     0.17600
H985        H  0.46848627  0.17068766  0.15599325     0.17600
N986        N  0.50962477  0.19076740  0.21997281    -0.89200
H987        H  0.44450063  0.31728789  0.10931881     0.34900
H988        H  0.40296481  0.31031351  0.13722942     0.40000
H989        H  0.53064660  0.17624244  0.20228407     0.39700
H990        H  0.48983086  0.16943387  0.23126799     0.34500
C991        C  0.83554927  0.55502499  0.70056299    -0.27200
C992        C  0.84862510  0.54564314  0.73921346    -0.15300
C993        C  0.82604746  0.51791781  0.76185803     0.35400
C994        C  0.79377497  0.49775649  0.74430695    -0.26600
C995        C  0.78277998  0.50518651  0.70453015    -0.15900
C996        C  0.80309384  0.53554829  0.68336711     0.36500
N997        N  0.79135476  0.54646618  0.64391181    -0.90100
H998        H  0.85099916  0.57736707  0.68289808     0.17600
H999        H  0.77846794  0.47488907  0.76141042     0.17600
N1000       N  0.83577581  0.50981183  0.80252043    -0.89200
H1001       H  0.81571520  0.54259231  0.62486985     0.34900
H1002       H  0.78420022  0.57666279  0.64389341     0.40000
H1003       H  0.84114669  0.47938121  0.80544716     0.39700
H1004       H  0.81107556  0.51662100  0.82016299     0.34500
C1005       C  0.79627755  0.30384053  0.56222912    -0.27200
C1006       C  0.76039826  0.32096267  0.54946726    -0.15300
C1007       C  0.74035048  0.30235340  0.51752671     0.35400
C1008       C  0.75682595  0.26873753  0.49905597    -0.26600
C1009       C  0.79359818  0.25298685  0.51062110    -0.15900
C1010       C  0.81315686  0.27086959  0.54313499     0.36500
N1011       N  0.85014277  0.25627668  0.55776272    -0.90100
H1012       H  0.81210627  0.31661692  0.58702921     0.17600
H1013       H  0.74146642  0.25604406  0.47394886     0.17600
N1014       N  0.70376463  0.31718775  0.50226974    -0.89200
H1015       H  0.87215536  0.26074629  0.53611011     0.34900
H1016       H  0.84721533  0.22585871  0.56366672     0.40000
H1017       H  0.70807005  0.34651172  0.49266125     0.39700
H1018       H  0.68242516  0.31635481  0.52502898     0.34500
C1019       C  0.73793187  0.15627755  0.02897707    -0.27200
C1020       C  0.76288165  0.13010381  0.04968847    -0.15300
C1021       C  0.80402766  0.13833448  0.04980862     0.35400
C1022       C  0.81911369  0.17179057  0.02963989    -0.26600
C1023       C  0.79454663  0.19759951  0.00800956    -0.15900
C1024       C  0.75310808  0.18954530  0.00814825     0.36500
N1025       N  0.72553702  0.21404572  0.98722047    -0.90100
H1026       H  0.70626406  0.15084725  0.02878888     0.17600
H1027       H  0.85087868  0.17661371  0.02988929     0.17600
N1028       N  0.83114094  0.11224356  0.06946531    -0.89200
H1029       H  0.73212263  0.21325674  0.95677809     0.34900
H1030       H  0.72825877  0.24318974  0.99746949     0.40000
H1031       H  0.84658269  0.12864589  0.09068972     0.39700
H1032       H  0.85156197  0.10198270  0.04832407     0.34500
C1033       C  0.98895735  0.31575159  0.99851461    -0.27200
C1034       C  0.96799634  0.27958583  0.99540669    -0.15300
C1035       C  0.97374066  0.25032939  0.02504595     0.35400
C1036       C  0.99870227  0.25830183  0.05755012    -0.26600
C1037       C  0.01855428  0.29507497  0.06130193    -0.15900
C1038       C  0.01393414  0.32368116  0.03082129     0.36500
N1039       N  0.03349292  0.36144780  0.03298756    -0.90100
H1040       H  0.98533456  0.33870247  0.97606141     0.17600
H1041       H  0.00217785  0.23556611  0.08023765     0.17600
N1042       N  0.95340511  0.21297119  0.02309294    -0.89200
H1043       H  0.01189045  0.38362673  0.03279796     0.34900
H1044       H  0.05113263  0.36498622  0.00742108     0.40000
H1045       H  0.93607856  0.20968784  0.04890622     0.39700
H1046       H  0.97460678  0.19041323  0.02294252     0.34500
C1047       C  0.78503862  0.32626211  0.79616626    -0.27200
C1048       C  0.82001045  0.34434997  0.80848943    -0.15300
C1049       C  0.84092765  0.36949150  0.78180809     0.35400
C1050       C  0.82507089  0.37785373  0.74390241    -0.26600
C1051       C  0.78921581  0.36032615  0.73192231    -0.15900
C1052       C  0.77010045  0.33301786  0.75817527     0.36500
N1053       N  0.73485819  0.31235594  0.74675025    -0.90100
H1054       H  0.76928123  0.30608838  0.81607450     0.17600
H1055       H  0.83990445  0.39931359  0.72466536     0.17600
N1056       N  0.87738302  0.38761210  0.79362831    -0.89200
H1057       H  0.71230127  0.31913098  0.76715634     0.34900
H1058       H  0.74039336  0.28193757  0.74862987     0.40000
H1059       H  0.87416386  0.41842663  0.79155540     0.39700
H1060       H  0.89938256  0.37921340  0.77329235     0.34500
C1061       C  0.96100946  0.17185447  0.77697707    -0.27200
C1062       C  0.98693432  0.19612157  0.75459663    -0.15300
C1063       C  0.98967204  0.23699245  0.76478210     0.35400
C1064       C  0.96858329  0.25154342  0.79794232    -0.26600
C1065       C  0.94444923  0.22653429  0.82165246    -0.15900
C1066       C  0.94002610  0.18635204  0.81001938     0.36500
N1067       N  0.91491511  0.15951657  0.83205086    -0.90100
H1068       H  0.95795322  0.14065919  0.76977904     0.17600
H1069       H  0.97171554  0.28263272  0.80554988     0.17600
N1070       N  0.01428738  0.26440204  0.74295939    -0.89200
H1071       H  0.93218483  0.13584486  0.84214231     0.34900
H1072       H  0.89364231  0.14820684  0.81266139     0.40000
H1073       H  0.00545774  0.26455879  0.71317974     0.39700
H1074       H  0.04370853  0.25517114  0.74469979     0.34500
C1075       C  0.46705262  0.16859372  0.67543584    -0.27200
C1076       C  0.48512506  0.19353222  0.70347447    -0.15300
C1077       C  0.48008100  0.23504726  0.69925038     0.35400
C1078       C  0.45928973  0.25061154  0.66632409    -0.26600
C1079       C  0.44276657  0.22551945  0.63742099    -0.15900
C1080       C  0.44642707  0.18395573  0.64270711     0.36500
N1081       N  0.43062741  0.15691906  0.61404294    -0.90100
H1082       H  0.47045696  0.13665539  0.67762992     0.17600
H1083       H  0.45604927  0.28251393  0.66344544     0.17600
N1084       N  0.49618040  0.26161147  0.72811136    -0.89200
H1085       H  0.41072296  0.13783766  0.62874822     0.34900
H1086       H  0.45392977  0.13984555  0.60274441     0.40000
H1087       H  0.47293709  0.27837248  0.73995199     0.39700
H1088       H  0.51576101  0.28104584  0.71348737     0.34500
C1089       C  0.52457051  0.14232426  0.92932324    -0.27200
C1090       C  0.51975695  0.16516976  0.89456970    -0.15300
C1091       C  0.49032987  0.19521708  0.89461862     0.35400
C1092       C  0.46634335  0.20112219  0.92862229    -0.26600
C1093       C  0.47016058  0.17707719  0.96259421    -0.15900
C1094       C  0.50013211  0.14756252  0.96284402     0.36500
N1095       N  0.50689257  0.12255494  0.99682131    -0.90100
H1096       H  0.54708815  0.11949494  0.93036410     0.17600
H1097       H  0.44329255  0.22343620  0.92766828     0.17600
N1098       N  0.48376439  0.21926525  0.85994945    -0.89200
H1099       H  0.48259217  0.10366322  0.00113027     0.34900
H1100       H  0.51035215  0.14045523  0.02191179     0.40000
H1101       H  0.48749975  0.24904090  0.86783396     0.39700
H1102       H  0.45438739  0.21525758  0.85114509     0.34500
C1103       C  0.71384887  0.19507288  0.81732868    -0.27200
C1104       C  0.69165341  0.17079570  0.84310457    -0.15300
C1105       C  0.70965030  0.15466242  0.87721955     0.35400
C1106       C  0.74853314  0.16604319  0.88685036    -0.26600
C1107       C  0.76978405  0.19274049  0.86234061    -0.15900
C1108       C  0.75318238  0.20494949  0.82569328     0.36500
N1109       N  0.77521779  0.22811465  0.79689021    -0.90100
H1110       H  0.70060121  0.20587266  0.79016714     0.17600
H1111       H  0.76082752  0.15653240  0.91505592     0.17600
N1112       N  0.68780360  0.12846907  0.90314861    -0.89200
H1113       H  0.77598881  0.21200580  0.77035419     0.34900
H1114       H  0.80476298  0.23128127  0.80533914     0.40000
H1115       H  0.68665931  0.14128259  0.93144407     0.39700
H1116       H  0.70349838  0.10184917  0.90540647     0.34500
C1117       C  0.67313581  0.27634367  0.67717791    -0.27200
C1118       C  0.64308565  0.30193172  0.66464465    -0.15300
C1119       C  0.60500878  0.28662434  0.65756586     0.35400
C1120       C  0.59619394  0.24711769  0.66849193    -0.26600
C1121       C  0.62542198  0.22283799  0.68544607    -0.15900
C1122       C  0.66455880  0.23689119  0.68757162     0.36500
N1123       N  0.69536222  0.21124330  0.70126626    -0.90100
H1124       H  0.70329373  0.28718302  0.67925010     0.17600
H1125       H  0.56593412  0.23645150  0.66653503     0.17600
N1126       N  0.57530963  0.31127476  0.64005909    -0.89200
H1127       H  0.70879579  0.22469996  0.72557186     0.34900
H1128       H  0.71668502  0.20919696  0.67857167     0.40000
H1129       H  0.55121121  0.31268271  0.65976184     0.39700
H1130       H  0.56571026  0.29754496  0.61399290     0.34500
C1131       C  0.72105034  0.03208298  0.67611864    -0.27200
C1132       C  0.74224135  0.00623619  0.70104716    -0.15300
C1133       C  0.73034299  0.00332148  0.74151194     0.35400
C1134       C  0.69688829  0.02436050  0.75544801    -0.26600
C1135       C  0.67441524  0.04845085  0.72983522    -0.15900
C1136       C  0.68762006  0.05285851  0.68979560     0.36500
N1137       N  0.66678367  0.07767153  0.66225605    -0.90100
H1138       H  0.72940397  0.03504748  0.64499223     0.17600
H1139       H  0.68804946  0.02105528  0.78641798     0.17600
N1140       N  0.75097855  0.97783097  0.76841694    -0.89200
H1141       H  0.65762953  0.06013003  0.63840925     0.34900
H1142       H  0.68652025  0.09918526  0.65120826     0.40000
H1143       H  0.73060504  0.95728542  0.78012793     0.39700
H1144       H  0.76131498  0.99511565  0.79194660     0.34500
C1145       C  0.05653719  0.70248824  0.16172809    -0.27200
C1146       C  0.08273428  0.72661761  0.13936196    -0.15300
C1147       C  0.08847464  0.76641479  0.15184589     0.35400
C1148       C  0.06710102  0.78134630  0.18452264    -0.26600
C1149       C  0.03947923  0.75793405  0.20575319    -0.15900
C1150       C  0.03499254  0.71749960  0.19443643     0.36500
N1151       N  0.00797171  0.69108325  0.21450734    -0.90100
H1152       H  0.05205743  0.67177678  0.15332282     0.17600
H1153       H  0.07135197  0.81223660  0.19245064     0.17600
N1154       N  0.11544105  0.79243961  0.13109638    -0.89200
H1155       H  0.97932497  0.70229680  0.21201029     0.34900
H1156       H  0.01565003  0.68948956  0.24458446     0.40000
H1157       H  0.13651215  0.80250018  0.15136944     0.39700
H1158       H  0.09956734  0.81700888  0.12081428     0.34500
C1159       C  0.06209859  0.92966345  0.25636839    -0.27200
C1160       C  0.02779740  0.93361810  0.27970186    -0.15300
C1161       C  0.02686462  0.96312406  0.30950801     0.35400
C1162       C  0.06053082  0.98670191  0.31669164    -0.26600
C1163       C  0.09574260  0.98157546  0.29474611    -0.15900
C1164       C  0.09598168  0.95301295  0.26363977     0.36500
N1165       N  0.13082998  0.94661343  0.23987037    -0.90100
H1166       H  0.06342248  0.90686054  0.23372904     0.17600
H1167       H  0.05911605  0.00879213  0.34000310     0.17600
N1168       N  0.99163275  0.96911227  0.33281732    -0.89200
H1169       H  0.12362420  0.95149255  0.21000853     0.34900
H1170       H  0.13919107  0.91689634  0.24311447     0.40000
H1171       H  0.98273360  0.99860317  0.32901564     0.39700
H1172       H  0.99865383  0.96488137  0.36282371     0.34500
C1173       C  0.83729095  0.89743224  0.19830606    -0.27200
C1174       C  0.85273789  0.90800027  0.23558325    -0.15300
C1175       C  0.83184592  0.93642986  0.25837506     0.35400
C1176       C  0.79767436  0.95473703  0.24277909    -0.26600
C1177       C  0.78441773  0.94661062  0.20396787    -0.15900
C1178       C  0.80416891  0.91637836  0.18219694     0.36500
N1179       N  0.79171786  0.90412110  0.14342911    -0.90100
H1180       H  0.85178978  0.87485908  0.18057234     0.17600
H1181       H  0.78325530  0.97764973  0.26014541     0.17600
N1182       N  0.84563744  0.94777864  0.29689907    -0.89200
H1183       H  0.79743563  0.92681703  0.12278807     0.34900
H1184       H  0.76137418  0.89778243  0.14444835     0.40000
H1185       H  0.82294542  0.94215463  0.31761955     0.39700
H1186       H  0.85110535  0.97838981  0.29640436     0.34500
C1187       C  0.77135573  0.76429756  0.50421795    -0.27200
C1188       C  0.73192572  0.75248013  0.51181230    -0.15300
C1189       C  0.71058683  0.77225800  0.54204414     0.35400
C1190       C  0.72788692  0.80428156  0.56225886    -0.26600
C1191       C  0.76652919  0.81780201  0.55321368    -0.15900
C1192       C  0.78874417  0.79648460  0.52422940     0.36500
N1193       N  0.82872336  0.80686637  0.51380250    -0.90100
H1194       H  0.78837399  0.74971192  0.48105659     0.17600
H1195       H  0.71029637  0.81910921  0.58482609     0.17600
N1196       N  0.67094437  0.76036692  0.55211508    -0.89200
H1197       H  0.84607254  0.80532144  0.53940379     0.34900
H1198       H  0.82924768  0.83582450  0.50238091     0.40000
H1199       H  0.65244945  0.78486783  0.54798004     0.39700
H1200       H  0.67010385  0.75267301  0.58234564     0.34500
C1201       C  0.80126982  0.74168448  0.39146211    -0.27200
C1202       C  0.76689627  0.76079344  0.37811003    -0.15300
C1203       C  0.77022241  0.79633156  0.35637730     0.35400
C1204       C  0.80820769  0.81100006  0.34642232    -0.26600
C1205       C  0.84266619  0.79019278  0.35775183    -0.15900
C1206       C  0.83887276  0.75587507  0.38150067     0.36500
N1207       N  0.87306569  0.73495482  0.39525322    -0.90100
H1208       H  0.79901399  0.71462752  0.40903044     0.17600
H1209       H  0.81065733  0.83761257  0.32819412     0.17600
N1210       N  0.73548141  0.81631298  0.34277840    -0.89200
H1211       H  0.87160822  0.70584714  0.38462770     0.34900
H1212       H  0.87182191  0.73380294  0.42638430     0.40000
H1213       H  0.73697747  0.81809221  0.31168026     0.39700
H1214       H  0.73605983  0.84525887  0.35388169     0.34500
C1215       C  0.56616380  0.70522366  0.29731863    -0.27200
C1216       C  0.58290107  0.73123347  0.32523232    -0.15300
C1217       C  0.57973807  0.77256206  0.31858419     0.35400
C1218       C  0.55956548  0.78691979  0.28521498    -0.26600
C1219       C  0.54118523  0.76113711  0.25812190    -0.15900
C1220       C  0.54546457  0.71972739  0.26396297     0.36500
N1221       N  0.52808294  0.69218752  0.23681137    -0.90100
H1222       H  0.56888948  0.67340171  0.30148096     0.17600
H1223       H  0.55663443  0.81881284  0.28185669     0.17600
N1224       N  0.59552134  0.80037361  0.34650714    -0.89200
H1225       H  0.50830768  0.67404021  0.25284181     0.34900
H1226       H  0.55065154  0.67421181  0.22544069     0.40000
H1227       H  0.57226628  0.81798664  0.35703314     0.39700
H1228       H  0.61570144  0.81882454  0.33137711     0.34500
C1229       C  0.73152801  0.55650306  0.49487071    -0.27200
C1230       C  0.69379017  0.56176775  0.47781189    -0.15300
C1231       C  0.66427775  0.53279768  0.48569207     0.35400
C1232       C  0.67268571  0.50054317  0.51059962    -0.26600
C1233       C  0.70991902  0.49585900  0.52887053    -0.15900
C1234       C  0.73986929  0.52411481  0.52003502     0.36500
N1235       N  0.77854079  0.52156987  0.53694434    -0.90100
H1236       H  0.75484045  0.57805479  0.48900966     0.17600
H1237       H  0.64908304  0.47929243  0.51640897     0.17600
N1238       N  0.62494085  0.53583471  0.47030583    -0.89200
H1239       H  0.79136034  0.49477223  0.52813381     0.34900
H1240       H  0.77555834  0.52164279  0.56793477     0.40000
H1241       H  0.62628203  0.53466415  0.43921580     0.39700
H1242       H  0.61278068  0.56292975  0.47919429     0.34500
C1243       C  0.72710150  0.45702946  0.23789259    -0.27200
C1244       C  0.74212711  0.44642795  0.20014251    -0.15300
C1245       C  0.72409561  0.41419135  0.18021482     0.35400
C1246       C  0.69129806  0.39483199  0.19734637    -0.26600
C1247       C  0.67460259  0.40705070  0.23385818    -0.15900
C1248       C  0.69358781  0.43796558  0.25473238     0.36500
N1249       N  0.67850364  0.45100694  0.29244908    -0.90100
H1250       H  0.73993810  0.48186838  0.25355741     0.17600
H1251       H  0.67810111  0.37052071  0.18104815     0.17600
N1252       N  0.73787044  0.40055944  0.14222047    -0.89200
H1253       H  0.67171072  0.48120600  0.28999585     0.34900
H1254       H  0.70101224  0.44796179  0.31342943     0.40000
H1255       H  0.76834484  0.39539205  0.14376832     0.39700
H1256       H  0.73235800  0.42244235  0.12087007     0.34500
C1257       C  0.85826373  0.45279892  0.01181683    -0.27200
C1258       C  0.82036982  0.45998217  0.02837931    -0.15300
C1259       C  0.78950923  0.43305140  0.01971152     0.35400
C1260       C  0.79714741  0.39978592  0.99558557    -0.26600
C1261       C  0.83517062  0.39250579  0.97966801    -0.15900
C1262       C  0.86590700  0.41951812  0.98799053     0.36500
N1263       N  0.90535175  0.41265460  0.97352053    -0.90100
H1264       H  0.88271691  0.47270848  0.01802692     0.17600
H1265       H  0.77303928  0.37944471  0.98937967     0.17600
N1266       N  0.75055242  0.43865959  0.03585007    -0.89200
H1267       H  0.92415698  0.41058782  0.99802832     0.34900
H1268       H  0.91415133  0.43728760  0.95643163     0.40000
H1269       H  0.74279922  0.41305212  0.05193232     0.39700
H1270       H  0.73092618  0.44122592  0.01206704     0.34500
C1271       C  0.96891974  0.48450169  0.13663367    -0.27200
C1272       C  0.93359489  0.47746891  0.15810607    -0.15300
C1273       C  0.93318226  0.44656647  0.18720224     0.35400
C1274       C  0.96738930  0.42405459  0.19418847    -0.26600
C1275       C  0.00219992  0.43050143  0.17214080    -0.15900
C1276       C  0.00283431  0.46126169  0.14296365     0.36500
N1277       N  0.03767135  0.47016951  0.11979412    -0.90100
H1278       H  0.97023557  0.50806099  0.11449884     0.17600
H1279       H  0.96609548  0.40009941  0.21592802     0.17600
N1280       N  0.89790015  0.43711831  0.20944477    -0.89200
H1281       H  0.04424762  0.44600508  0.10155796     0.34900
H1282       H  0.06124842  0.47492296  0.13920541     0.40000
H1283       H  0.90408652  0.43997854  0.23976429     0.39700
H1284       H  0.89052435  0.40743526  0.20406981     0.34500
C1285       C  0.89934401  0.67874737  0.15105348    -0.27200
C1286       C  0.88081729  0.64972092  0.17537336    -0.15300
C1287       C  0.86881258  0.66014283  0.21416941     0.35400
C1288       C  0.87605656  0.69839818  0.22817989    -0.26600
C1289       C  0.89690799  0.72691658  0.20519726    -0.15900
C1290       C  0.90817210  0.71695437  0.16589522     0.36500
N1291       N  0.92973902  0.74475471  0.14150228    -0.90100
H1292       H  0.90811725  0.67137315  0.12085790     0.17600
H1293       H  0.86665451  0.70500251  0.25838314     0.17600
N1294       N  0.84886243  0.63205571  0.23967542    -0.89200
H1295       H  0.91365072  0.74951659  0.11544842     0.34900
H1296       H  0.95679322  0.73184322  0.13357998     0.40000
H1297       H  0.82135138  0.64384629  0.24779206     0.39700
H1298       H  0.86556575  0.62853112  0.26553065     0.34500
C1299       C  0.70184198  0.60268612  0.23573158    -0.27200
C1300       C  0.73724531  0.58109607  0.23581599    -0.15300
C1301       C  0.75483787  0.57128999  0.27272940     0.35400
C1302       C  0.73832935  0.58475033  0.30825468    -0.26600
C1303       C  0.70429433  0.60807372  0.30849503    -0.15900
C1304       C  0.68529616  0.61653671  0.27187951     0.36500
N1305       N  0.65034991  0.64050955  0.27103976    -0.90100
H1306       H  0.68811048  0.61038962  0.20768592     0.17600
H1307       H  0.75287355  0.57726840  0.33595898     0.17600
N1308       N  0.79009189  0.54780390  0.27447848    -0.89200
H1309       H  0.62784671  0.62411170  0.25753352     0.34900
H1310       H  0.65622181  0.66549962  0.25324512     0.40000
H1311       H  0.78430890  0.52283482  0.29232054     0.39700
H1312       H  0.81213442  0.56457845  0.28829260     0.34500
C1313       C  0.76633393  0.68944633  0.00390759    -0.27200
C1314       C  0.72578219  0.69759594  0.00965126    -0.15300
C1315       C  0.70412767  0.67387833  0.03712487     0.35400
C1316       C  0.72274932  0.64229022  0.05701585    -0.26600
C1317       C  0.76295164  0.63304853  0.05019409    -0.15900
C1318       C  0.78492391  0.65752150  0.02361063     0.36500
N1319       N  0.82599756  0.64995280  0.01597966    -0.90100
H1320       H  0.78352113  0.70686395  0.98262500     0.17600
H1321       H  0.70511114  0.62447256  0.07757431     0.17600
N1322       N  0.66295919  0.68129373  0.04467132    -0.89200
H1323       H  0.84207486  0.67541418  0.02345921     0.34900
H1324       H  0.82970472  0.64517831  0.98541703     0.40000
H1325       H  0.65919382  0.68659111  0.07513434     0.39700
H1326       H  0.64699868  0.65563019  0.03760000     0.34500
C1327       C  0.53307431  0.73630199  0.76525982    -0.27200
C1328       C  0.54122276  0.69727461  0.75270806    -0.15300
C1329       C  0.57071547  0.67589706  0.77309076     0.35400
C1330       C  0.58933426  0.69256218  0.80642555    -0.26600
C1331       C  0.57924374  0.73052978  0.82092065    -0.15900
C1332       C  0.55115709  0.75289270  0.79901848     0.36500
N1333       N  0.53944481  0.79204003  0.81057629    -0.90100
H1334       H  0.51087231  0.75354454  0.75003570     0.17600
H1335       H  0.61142506  0.67490141  0.82154125     0.17600
N1336       N  0.58159857  0.63681787  0.76045897    -0.89200
H1337       H  0.56449054  0.81039247  0.81067754     0.34900
H1338       H  0.52712584  0.79066870  0.83924702     0.40000
H1339       H  0.57656826  0.61716012  0.78424227     0.39700
H1340       H  0.61195437  0.63691590  0.75394788     0.34500
C1341       C  0.33969360  0.55779621  0.77117440    -0.27200
C1342       C  0.35230024  0.54977057  0.73192605    -0.15300
C1343       C  0.32852303  0.52441421  0.70862188     0.35400
C1344       C  0.29489748  0.50570897  0.72563452    -0.26600
C1345       C  0.28478489  0.51053509  0.76612219    -0.15900
C1346       C  0.30680457  0.53853649  0.78848963     0.36500
N1347       N  0.29682245  0.54822093  0.82887963    -0.90100
H1348       H  0.35624863  0.57844501  0.78931582     0.17600
H1349       H  0.27835929  0.48495487  0.70759407     0.17600
N1350       N  0.33863809  0.51677906  0.66785915    -0.89200
H1351       H  0.30238041  0.52379710  0.84729784     0.34900
H1352       H  0.26678315  0.55554126  0.83044985     0.40000
H1353       H  0.31469660  0.52525194  0.65023059     0.39700
H1354       H  0.34263704  0.48616575  0.66465077     0.34500
C1355       C  0.55980903  0.47168204  0.63950157    -0.27200
C1356       C  0.59428466  0.47687660  0.66212752    -0.15300
C1357       C  0.59414537  0.50706854  0.69183633     0.35400
C1358       C  0.56037348  0.53039217  0.69799299    -0.26600
C1359       C  0.52648264  0.52563844  0.67484002    -0.15900
C1360       C  0.52636733  0.49575896  0.64516188     0.36500
N1361       N  0.49251905  0.48856918  0.62072256    -0.90100
H1362       H  0.55879601  0.44889598  0.61685869     0.17600
H1363       H  0.56126606  0.55364983  0.72018759     0.17600
N1364       N  0.62793048  0.51582575  0.71582590    -0.89200
H1365       H  0.48770948  0.51334716  0.60256410     0.34900
H1366       H  0.46777923  0.48407384  0.63922648     0.40000
H1367       H  0.65192896  0.52312730  0.69721408     0.39700
H1368       H  0.63460701  0.49103585  0.73337257     0.34500
C1369       C  0.52251026  0.69786005  0.55544453    -0.27200
C1370       C  0.50462777  0.66018230  0.56047100    -0.15300
C1371       C  0.51210819  0.63087123  0.53133584     0.35400
C1372       C  0.53830568  0.63914117  0.49974148    -0.26600
C1373       C  0.55771533  0.67617796  0.49574334    -0.15900
C1374       C  0.54857027  0.70619244  0.52364465     0.36500
N1375       N  0.56604955  0.74497696  0.52145048    -0.90100
H1376       H  0.51674814  0.72113763  0.57687496     0.17600
H1377       H  0.54416800  0.61571002  0.47850247     0.17600
N1378       N  0.49485087  0.59194950  0.53349212    -0.89200
H1379       H  0.55832304  0.75811841  0.49432203     0.34900
H1380       H  0.59679571  0.74206368  0.52263726     0.40000
H1381       H  0.46404179  0.59451523  0.53207888     0.39700
H1382       H  0.50268607  0.57870121  0.56052522     0.34500
C1383       C  0.18880992  0.05587172  0.76211578    -0.27200
C1384       C  0.17445464  0.04688553  0.72392577    -0.15300
C1385       C  0.19553429  0.01862841  0.70102315     0.35400
C1386       C  0.22837850  0.99852566  0.71752625    -0.26600
C1387       C  0.24110590  0.00610976  0.75665519    -0.15900
C1388       C  0.22152135  0.03608783  0.77843159     0.36500
N1389       N  0.23435088  0.04628483  0.81765862    -0.90100
H1390       H  0.17414871  0.07810776  0.78013285     0.17600
H1391       H  0.24275911  0.97554636  0.70022460     0.17600
N1392       N  0.18359803  0.00979155  0.66121345    -0.89200
H1393       H  0.21064427  0.04164657  0.83745375     0.34900
H1394       H  0.24147541  0.07654532  0.81778523     0.40000
H1395       H  0.17734753  0.97940555  0.65968836     0.39700
H1396       H  0.20753612  0.01583614  0.64209205     0.34500
C1397       C  0.29719300  0.02957894  0.92438040    -0.27200
C1398       C  0.31702834  0.99383415  0.93086957    -0.15300
C1399       C  0.34488739  0.99141940  0.96192633     0.35400
C1400       C  0.35335957  0.02501771  0.98510230    -0.26600
C1401       C  0.33469099  0.06149784  0.97775398    -0.15900
C1402       C  0.30590757  0.06338843  0.94706440     0.36500
N1403       N  0.28602101  0.09979487  0.93784752    -0.90100
H1404       H  0.27632368  0.03195516  0.90012381     0.17600
H1405       H  0.37481380  0.02247794  0.00878676     0.17600
N1406       N  0.36472358  0.95471807  0.96995210    -0.89200
H1407       H  0.25552103  0.09499078  0.94097153     0.34900
H1408       H  0.29200202  0.10705566  0.90804209     0.40000
H1409       H  0.35859676  0.94651930  0.99948445     0.39700
H1410       H  0.39523161  0.95965887  0.96717628     0.34500
C1411       C  0.46045320  0.98229478  0.82928773    -0.27200
C1412       C  0.43426433  0.97557474  0.79788532    -0.15300
C1413       C  0.44335110  0.99172520  0.75975981     0.35400
C1414       C  0.47681364  0.01644655  0.75475714    -0.26600
C1415       C  0.50184427  0.02494381  0.78677071    -0.15900
C1416       C  0.49401426  0.00654952  0.82414441     0.36500
N1417       N  0.51991723  0.01242986  0.85720221    -0.90100
H1418       H  0.45442842  0.96939007  0.85840813     0.17600
H1419       H  0.48280831  0.02984872  0.72587550     0.17600
N1420       N  0.41873230  0.98291463  0.72618232    -0.89200
H1421       H  0.53017802  0.98464927  0.86654105     0.34900
H1422       H  0.50344137  0.02473037  0.88057249     0.40000
H1423       H  0.42096931  0.95244244  0.72074552     0.39700
H1424       H  0.42928692  0.99739215  0.70051684     0.34500
C1425       C  0.37284740  0.77256967  0.80830513    -0.27200
C1426       C  0.38871516  0.80703062  0.78972365    -0.15300
C1427       C  0.41752498  0.80280786  0.75939845     0.35400
C1428       C  0.42772478  0.76496787  0.74666008    -0.26600
C1429       C  0.41036100  0.73070003  0.76351886    -0.15900
C1430       C  0.38325109  0.73443955  0.79522375     0.36500
N1431       N  0.36454311  0.70037728  0.81306300    -0.90100
H1432       H  0.35086525  0.77527702  0.83187643     0.17600
H1433       H  0.44823076  0.76244917  0.72180104     0.17600
N1434       N  0.43707340  0.83614114  0.74095483    -0.89200
H1435       H  0.38668984  0.68186702  0.82420798     0.34900
H1436       H  0.34950166  0.68494088  0.79084214     0.40000
H1437       H  0.44958306  0.85369326  0.76319542     0.39700
H1438       H  0.41637961  0.85282297  0.72517075     0.34500
C1439       C  0.22972570  0.80571306  0.90085284    -0.27200
C1440       C  0.26672806  0.82146664  0.91173820    -0.15300
C1441       C  0.28783820  0.80241295  0.94275484     0.35400
C1442       C  0.27108860  0.76886330  0.96218225    -0.26600
C1443       C  0.23330709  0.75439815  0.95217219    -0.15900
C1444       C  0.21294300  0.77291586  0.92074059     0.36500
N1445       N  0.17477980  0.75883585  0.90903427    -0.90100
H1446       H  0.21309005  0.81920977  0.87689341     0.17600
H1447       H  0.28668845  0.75539550  0.98686555     0.17600
N1448       N  0.32565606  0.81745801  0.95517605    -0.89200
H1449       H  0.15471962  0.78225426  0.91198930     0.34900
H1450       H  0.17632650  0.75117629  0.87891511     0.40000
H1451       H  0.33764760  0.79928275  0.97734237     0.39700
H1452       H  0.32082094  0.84511629  0.96834133     0.34500
C1453       C  0.20909174  0.68056949  0.42462740    -0.27200
C1454       C  0.23267206  0.70185281  0.45141353    -0.15300
C1455       C  0.27309009  0.69125146  0.45464325     0.35400
C1456       C  0.28788229  0.65791111  0.43395186    -0.26600
C1457       C  0.26342624  0.63501710  0.40914786    -0.15900
C1458       C  0.22390204  0.64787524  0.40344909     0.36500
N1459       N  0.19803051  0.62742230  0.37680815    -0.90100
H1460       H  0.17822292  0.68842469  0.42098228     0.17600
H1461       H  0.31862957  0.64971453  0.43774897     0.17600
N1462       N  0.29912423  0.71348461  0.47963418    -0.89200
H1463       H  0.18840184  0.64772388  0.35529992     0.34900
H1464       H  0.17328274  0.61747426  0.39303869     0.40000
H1465       H  0.32235211  0.72448474  0.46187103     0.39700
H1466       H  0.31122852  0.69410363  0.50065711     0.34500
C1467       C  0.22617574  0.89396222  0.45723768    -0.27200
C1468       C  0.19358465  0.89341900  0.48394172    -0.15300
C1469       C  0.16905286  0.92730938  0.48555193     0.35400
C1470       C  0.17665833  0.95984269  0.46000762    -0.26600
C1471       C  0.20872616  0.95990428  0.43290675    -0.15900
C1472       C  0.23386174  0.92667098  0.43192669     0.36500
N1473       N  0.26617788  0.92515541  0.40401808    -0.90100
H1474       H  0.24569082  0.86855354  0.45538694     0.17600
H1475       H  0.15694932  0.98516657  0.46109238     0.17600
N1476       N  0.13605650  0.92887326  0.51263622    -0.89200
H1477       H  0.26200660  0.90045959  0.38575505     0.34900
H1478       H  0.29227703  0.92087935  0.41998646     0.40000
H1479       H  0.11035165  0.93324667  0.49605318     0.39700
H1480       H  0.13986981  0.95349134  0.53108413     0.34500
C1481       C  0.02187101  0.76019521  0.40920653    -0.27200
C1482       C  0.01218004  0.79960467  0.39893354    -0.15300
C1483       C  0.02647556  0.83069655  0.42254926     0.35400
C1484       C  0.05057063  0.82215749  0.45528578    -0.26600
C1485       C  0.06113083  0.78280075  0.46547192    -0.15900
C1486       C  0.04576018  0.75137412  0.44241192     0.36500
N1487       N  0.05460158  0.71078194  0.45230984    -0.90100
H1488       H  0.01045471  0.73607391  0.39135442     0.17600
H1489       H  0.06179903  0.84698335  0.47226622     0.17600
N1490       N  0.01795884  0.87119100  0.41250335    -0.89200
H1491       H  0.04187586  0.69148027  0.43171377     0.34900
H1492       H  0.04103515  0.70447353  0.47978529     0.40000
H1493       H  0.04482965  0.88607208  0.40752979     0.39700
H1494       H  0.00388982  0.88424101  0.43699932     0.34500
C1495       C  0.24167186  0.82252788  0.66801743    -0.27200
C1496       C  0.20649437  0.84005648  0.65545329    -0.15300
C1497       C  0.18502365  0.86444484  0.68190489     0.35400
C1498       C  0.20107426  0.87377034  0.71929024    -0.26600
C1499       C  0.23771437  0.85803297  0.73088852    -0.15900
C1500       C  0.25692000  0.83040642  0.70562475     0.36500
N1501       N  0.29260447  0.81090742  0.71765736    -0.90100
H1502       H  0.25745960  0.80233334  0.64854206     0.17600
H1503       H  0.18598824  0.89503384  0.73813811     0.17600
N1504       N  0.14787263  0.88105714  0.67026046    -0.89200
H1505       H  0.31488154  0.81764068  0.69677799     0.34900
H1506       H  0.28754723  0.78025811  0.71717514     0.40000
H1507       H  0.15020033  0.91198899  0.67165828     0.39700
H1508       H  0.12639764  0.87193031  0.69106459     0.34500
C1509       C  0.27525666  0.70538564  0.63286121    -0.27200
C1510       C  0.25702927  0.69080993  0.59841711    -0.15300
C1511       C  0.27612802  0.66090935  0.57610966     0.35400
C1512       C  0.31470889  0.64913773  0.58667393    -0.26600
C1513       C  0.33424696  0.66710038  0.61867032    -0.15900
C1514       C  0.31361334  0.69394350  0.64297403     0.36500
N1515       N  0.33163429  0.70982707  0.67790415    -0.90100
H1516       H  0.26060908  0.72785702  0.65062670     0.17600
H1517       H  0.33017254  0.62713953  0.56902350     0.17600
N1518       N  0.25761883  0.64481005  0.54133731    -0.89200
H1519       H  0.31358979  0.70278747  0.70247219     0.34900
H1520       H  0.33279138  0.74073861  0.67494604     0.40000
H1521       H  0.23245476  0.62907696  0.55085330     0.39700
H1522       H  0.27625704  0.62426848  0.52744646     0.34500
C1523       C  0.06200523  0.74856709  0.66743866    -0.27200
C1524       C  0.08056471  0.72326333  0.63974195    -0.15300
C1525       C  0.07933192  0.68183698  0.64742678     0.35400
C1526       C  0.05891192  0.66681038  0.68100065    -0.26600
C1527       C  0.03875149  0.69181253  0.70774811    -0.15900
C1528       C  0.04136609  0.73334815  0.70116600     0.36500
N1529       N  0.02235318  0.76031838  0.72797650    -0.90100
H1530       H  0.06324464  0.78044348  0.66284748     0.17600
H1531       H  0.05757124  0.63486284  0.68505909     0.17600
N1532       N  0.09774542  0.65441091  0.62060313    -0.89200
H1533       H  0.00206483  0.77718761  0.71177151     0.34900
H1534       H  0.04392189  0.77960158  0.73903583     0.40000
H1535       H  0.07598036  0.63494355  0.61024384     0.39700
H1536       H  0.11842139  0.63781072  0.63658424     0.34500
loop_ 
_geom_bond_atom_site_label_1 
_geom_bond_atom_site_label_2 
_geom_bond_distance 
_geom_bond_site_symmetry_2 
_ccdc_geom_bond_type 
O1           C16   1.257       .  A
O1           Al9   1.857       .  S
C2           O12   1.256       .  A
C2            O3   1.273       .  A
C2         C1485   1.498       .  S
O3           Al5   1.959       .  S
O4            C6   1.260       .  A
O4           Al5   1.896       .  S
Al5          O13   1.888       .  S
Al5          O15   1.967       .  S
Al5          O14   1.776       .  S
C6           O19   1.265       .  A
C6         C1454   1.499       .  S
O7           C17   1.264       .  A
O7           Al9   1.885       .  S
O8           C21   1.252       .  A
O8          Al18   1.873       .  S
Al9          O22   1.928       .  S
Al9          O19   1.950       .  S
Al9          O14   1.775       .  S
O10          C17   1.276       .  A
O10         Al18   1.962       .  S
O11          C20   1.269       .  A
O11         Al18   1.950       .  S
O12         Al18   1.859       .  S
O13          C20   1.257       .  A
O14         Al18   1.782       .  S
O15          C16   1.274       .  A
C16        C1510   1.475       .  S
C17        C1468   1.499       .  S
C20        C1524   1.504       .  S
C21          O22   1.265       .  A
C21        C1496   1.469       .  S
O23          C38   1.253       .  A
O23         Al31   1.842       .  S
C24          O34   1.256       .  A
C24          O25   1.275       .  A
C24        C1398   1.479       .  S
O25         Al27   1.961       .  S
O26          C28   1.258       .  A
O26         Al27   1.888       .  S
Al27         O35   1.886       .  S
Al27         O37   1.974       .  S
Al27         O36   1.770       .  S
C28          O41   1.269       .  A
C28        C1387   1.500   1_565  S
O29          C39   1.262       .  A
O29         Al31   1.880       .  S
O30          C43   1.253       .  A
O30         Al40   1.870       .  S
Al31         O44   1.943       .  S
Al31         O41   1.968       .  S
Al31         O36   1.772       .  S
O32          C39   1.274       .  A
O32         Al40   1.952       .  S
O33          C42   1.264       .  A
O33         Al40   1.933       .  S
O34         Al40   1.856       .  S
O35          C42   1.258       .  A
O36         Al40   1.779       .  S
O37          C38   1.275       .  A
C38        C1499   1.480       .  S
C39        C1412   1.485       .  S
C42        C1440   1.497       .  S
C43          O44   1.268       .  A
C43        C1426   1.477       .  S
O45          C60   1.250       .  A
O45         Al53   1.854       .  S
C46          O56   1.254       .  A
C46          O47   1.274       .  A
C46        C1359   1.487       .  S
O47         Al49   1.962       .  S
O48          C50   1.262       .  A
O48         Al49   1.897       .  S
Al49         O57   1.892       .  S
Al49         O59   1.973       .  S
Al49         O58   1.779       .  S
C50          O63   1.271       .  A
C50        C1328   1.501       .  S
O51          C61   1.261       .  A
O51         Al53   1.878       .  S
O52          C65   1.251       .  A
O52         Al62   1.868       .  S
Al53         O66   1.940       .  S
Al53         O63   1.966       .  S
Al53         O58   1.767       .  S
O54          C61   1.272       .  A
O54         Al62   1.952       .  S
O55          C64   1.269       .  A
O55         Al62   1.944       .  S
O56         Al62   1.866       .  S
O57          C64   1.261       .  A
O58         Al62   1.781       .  S
O59          C60   1.270       .  A
C60        C1429   1.468       .  S
C61        C1370   1.493       .  S
C64        C1342   1.500       .  S
C65          O66   1.268       .  A
C65        C1513   1.470       .  S
O67          C82   1.254       .  A
O67         Al75   1.858       .  S
C68          O78   1.258       .  A
C68          O69   1.274       .  A
C68        C1258   1.497       .  S
O69         Al71   1.962       .  S
O70          C72   1.256       .  A
O70         Al71   1.887       .  S
Al71         O79   1.882       .  S
Al71         O81   1.989       .  S
Al71         O80   1.775       .  S
C72          O85   1.267       .  A
C72        C1244   1.493       .  S
O73          C83   1.259       .  A
O73         Al75   1.869       .  S
O74          C87   1.256       .  A
O74         Al84   1.893       .  S
Al75         O88   1.934       .  S
Al75         O85   1.957       .  S
Al75         O80   1.764       .  S
O76          C83   1.279       .  A
O76         Al84   1.979       .  S
O77          C86   1.271       .  A
O77         Al84   1.953       .  S
O78         Al84   1.865       .  S
O79          C86   1.259       .  A
O80         Al84   1.777       .  S
O81          C82   1.276       .  A
C82        C1300   1.479       .  S
C83        C1272   1.499       .  S
C86        C1317   1.501       .  S
C87          O88   1.266       .  A
C87        C1286   1.484       .  S
O89         C104   1.253       .  A
O89         Al97   1.861       .  S
C90         O100   1.258       .  A
C90          O91   1.273       .  A
C90        C1373   1.494       .  S
O91         Al93   1.959       .  S
O92          C94   1.262       .  A
O92         Al93   1.896       .  S
Al93        O101   1.882       .  S
Al93        O103   1.973       .  S
Al93        O102   1.776       .  S
C94         O107   1.270       .  A
C94        C1188   1.496       .  S
O95         C105   1.261       .  A
O95         Al97   1.878       .  S
O96         C109   1.253       .  A
O96        Al106   1.884       .  S
Al97        O110   1.933       .  S
Al97        O107   1.959       .  S
Al97        O102   1.766       .  S
O98         C105   1.275       .  A
O98        Al106   1.959       .  S
O99         C108   1.268       .  A
O99        Al106   1.941       .  S
O100       Al106   1.866       .  S
O101        C108   1.259       .  A
O102       Al106   1.773       .  S
O103        C104   1.271       .  A
C104       C1202   1.468       .  S
C105       C1230   1.493       .  S
C108       C1216   1.490       .  S
C109        O110   1.268       .  A
C109       C1303   1.481       .  S
O111        C126   1.255       .  A
O111       Al119   1.856       .  S
C112        O122   1.255       .  A
C112        O113   1.276       .  A
C112       C1160   1.487   1_655  S
O113       Al115   1.971       .  S
O114        C116   1.261       .  A
O114       Al115   1.893   1_455  S
Al115       O123   1.894       .  S
Al115       O125   1.984       .  S
Al115       O124   1.774       .  S
C116        O129   1.268   1_455  A
C116       C1149   1.499       .  S
O117        C127   1.261       .  A
O117       Al119   1.878       .  S
O118        C131   1.252       .  A
O118       Al128   1.871       .  S
Al119       O132   1.931       .  S
Al119       O129   1.955       .  S
Al119       O124   1.771       .  S
O120        C127   1.275       .  A
O120       Al128   1.959       .  S
O121        C130   1.267       .  A
O121       Al128   1.943       .  S
O122       Al128   1.859       .  S
O123        C130   1.261       .  A
O124       Al128   1.779       .  S
O125        C126   1.275       .  A
C126       C1289   1.492       .  S
C127       C1482   1.485   1_655  S
C130       C1174   1.502       .  S
C131        O132   1.266       .  A
C131       C1205   1.476       .  S
O133        C148   1.255       .  A
O133       Al141   1.870       .  S
C134        O144   1.253       .  A
C134        O135   1.269       .  A
C134       C1415   1.489       .  S
O135       Al137   1.947       .  S
O136        C138   1.263       .  A
O136       Al137   1.892       .  S
Al137       O145   1.882       .  S
Al137       O147   1.957       .  S
Al137       O146   1.780       .  S
C138        O151   1.271       .  A
C138       C1076   1.499       .  S
O139        C149   1.260       .  A
O139       Al141   1.882       .  S
O140        C153   1.250       .  A
O140       Al150   1.865       .  S
Al141       O154   1.938       .  S
Al141       O151   1.961       .  S
Al141       O146   1.772       .  S
O142        C149   1.274       .  A
O142       Al150   1.953       .  S
O143        C152   1.273       .  A
O143       Al150   1.956       .  S
O144       Al150   1.865       .  S
O145        C152   1.260       .  A
O146       Al150   1.779       .  S
O147        C148   1.268       .  A
C148       C1121   1.466       .  S
C149       C1090   1.498       .  S
C152       C1135   1.502       .  S
C153        O154   1.266       .  A
C153       C1104   1.470       .  S
O155        C170   1.257       .  A
O155       Al163   1.862       .  S
C156        O166   1.257       .  A
C156        O157   1.272       .  A
C156       C1034   1.497       .  S
O157       Al159   1.957       .  S
O158        C160   1.258       .  A
O158       Al159   1.887       .  S
Al159       O167   1.874       .  S
Al159       O169   1.967       .  S
Al159       O168   1.776       .  S
C160        O173   1.265       .  A
C160       C1023   1.500   1_556  S
O161        C171   1.264       .  A
O161       Al163   1.887       .  S
O162        C175   1.253       .  A
O162       Al172   1.881       .  S
Al163       O176   1.929       .  S
Al163       O173   1.950       .  S
Al163       O168   1.778       .  S
O164        C171   1.274       .  A
O164       Al172   1.951       .  S
O165        C174   1.268       .  A
O165       Al172   1.944       .  S
O166       Al172   1.870       .  S
O167        C174   1.255       .  A
O168       Al172   1.783       .  S
O169        C170   1.273       .  A
C170       C1107   1.473       .  S
C171       C1261   1.489       .  S
C174       C1065   1.498       .  S
C175        O176   1.265       .  A
C175       C1048   1.473       .  S
O177        C192   1.252       .  A
O177       Al185   1.846       .  S
C178        O188   1.254       .  A
C178        O179   1.276       .  A
C178       C1233   1.496       .  S
O179       Al181   1.976       .  S
O180        C182   1.261       .  A
O180       Al181   1.892       .  S
Al181       O189   1.893       .  S
Al181       O191   1.984       .  S
Al181       O190   1.775       .  S
C182        O195   1.272       .  A
C182        C995   1.500       .  S
O183        C193   1.257       .  A
O183       Al185   1.872       .  S
O184        C197   1.249       .  A
O184       Al194   1.858       .  S
Al185       O198   1.951       .  S
Al185       O195   1.970       .  S
Al185       O190   1.766       .  S
O186        C193   1.276       .  A
O186       Al194   1.969       .  S
O187        C196   1.271       .  A
O187       Al194   1.954       .  S
O188       Al194   1.848       .  S
O189        C196   1.261       .  A
O190       Al194   1.777       .  S
O191        C192   1.275       .  A
C192       C1051   1.487       .  S
C193       C1356   1.501       .  S
C196       C1006   1.508       .  S
C197        O198   1.269       .  A
C197       C1118   1.465       .  S
O199        C214   1.253       .  A
O199       Al207   1.843       .  S
C200        O210   1.255   1_556  A
C200        O201   1.274   1_556  A
C200       C1093   1.488       .  S
O201       Al203   1.963       .  S
O202        C204   1.258       .  A
O202       Al203   1.893   1_556  S
Al203       O211   1.876       .  S
Al203       O213   1.987       .  S
Al203       O212   1.772       .  S
C204        O217   1.267   1_556  A
C204        C939   1.491       .  S
O205        C215   1.258   1_556  A
O205       Al207   1.860   1_556  S
O206        C219   1.254       .  A
O206       Al216   1.886       .  S
Al207       O220   1.930       .  S
Al207       O217   1.950       .  S
Al207       O212   1.764       .  S
O208        C215   1.280       .  A
O208       Al216   1.983       .  S
O209        C218   1.271       .  A
O209       Al216   1.957       .  S
O210       Al216   1.862       .  S
O211        C218   1.257       .  A
O212       Al216   1.777       .  S
O213        C214   1.277       .  A
C214        C950   1.483       .  S
C215       C1401   1.495   1_554  S
C218        C981   1.501       .  S
C219        O220   1.266       .  A
C219        C964   1.487       .  S
O221        C236   1.255       .  A
O221       Al229   1.849       .  S
C222        O232   1.254       .  A
C222        O223   1.273       .  A
C222       C1275   1.486       .  S
O223       Al225   1.958       .  S
O224        C226   1.258       .  A
O224       Al225   1.892       .  S
Al225       O233   1.883       .  S
Al225       O235   1.976       .  S
Al225       O234   1.778       .  S
C226        O239   1.269       .  A
C226        C894   1.501   1_455  S
O227        C237   1.264       .  A
O227       Al229   1.889       .  S
O228        C241   1.251       .  A
O228       Al238   1.868       .  S
Al229       O242   1.939       .  S
Al229       O239   1.961       .  S
Al229       O234   1.774       .  S
O230        C237   1.275       .  A
O230       Al238   1.961       .  S
O231        C240   1.270       .  A
O231       Al238   1.958       .  S
O232       Al238   1.865       .  S
O233        C240   1.257       .  A
O234       Al238   1.785       .  S
O235        C236   1.273       .  A
C236        C911   1.484       .  S
C237       C1037   1.498       .  S
C240        C925   1.507       .  S
C241        O242   1.267       .  A
C241        C953   1.473       .  S
O243        C258   1.250       .  A
O243       Al251   1.856       .  S
C244        O254   1.258   1_565  A
C244        O245   1.273   1_565  A
C244       C1471   1.488       .  S
O245       Al247   1.958       .  S
O246        C248   1.262       .  A
O246       Al247   1.889   1_565  S
Al247       O255   1.891       .  S
Al247       O257   1.992       .  S
Al247       O256   1.780       .  S
C248        O261   1.270   1_565  A
C248        C866   1.497       .  S
O249        C259   1.259       .  A
O249       Al251   1.872       .  S
O250        C263   1.254       .  A
O250       Al260   1.888       .  S
Al251       O264   1.931       .  S
Al251       O261   1.962       .  S
Al251       O256   1.762       .  S
O252        C259   1.278       .  A
O252       Al260   1.975       .  S
O253        C262   1.273       .  A
O253       Al260   1.956       .  S
O254       Al260   1.874       .  S
O255        C262   1.262       .  A
O256       Al260   1.776       .  S
O257        C258   1.272       .  A
C258        C967   1.481       .  S
C259       C1163   1.500   1_545  S
C262        C880   1.506       .  S
C263        O264   1.265       .  A
C263        C908   1.479       .  S
O265        C280   1.267       .  A
O265       Al273   1.930       .  S
C266        O276   1.275       .  A
C266        O267   1.256       .  A
C266        C824   1.486       .  S
O267       Al269   1.854       .  S
O268        C270   1.276       .  A
O268       Al269   1.967       .  S
Al269       O277   1.953       .  S
Al269       O279   1.860       .  S
Al269       O278   1.778       .  S
C270        O283   1.258       .  A
C270        C813   1.490       .  S
O271        C281   1.265       .  A
O271       Al273   1.945       .  S
O272        C285   1.275       .  A
O272       Al282   1.979       .  S
Al273       O286   1.853       .  S
Al273       O283   1.872       .  S
Al273       O278   1.770       .  S
O274        C281   1.261       .  A
O274       Al282   1.890       .  S
O275        C284   1.260       .  A
O275       Al282   1.893       .  S
O276       Al282   1.967       .  S
O277        C284   1.269       .  A
O278       Al282   1.770       .  S
O279        C280   1.252       .  A
C280        C855   1.471       .  S
C281       C1062   1.495   1_455  S
C284       C1384   1.506       .  S
C285        O286   1.254       .  A
C285        C838   1.486       .  S
O287        C302   1.268       .  A
O287       Al295   1.940       .  S
C288        O298   1.272       .  A
C288        O289   1.257       .  A
C288        C768   1.482       .  S
O289       Al291   1.866       .  S
O290        C292   1.275       .  A
O290       Al291   1.965       .  S
Al291       O299   1.945       .  S
Al291       O301   1.879       .  S
Al291       O300   1.784       .  S
C292        O305   1.260       .  A
C292        C782   1.498       .  S
O293        C303   1.268       .  A
O293       Al295   1.955       .  S
O294        C307   1.272       .  A
O294       Al304   1.968       .  S
Al295       O308   1.849       .  S
Al295       O305   1.878       .  S
Al295       O300   1.770       .  S
O296        C303   1.256       .  A
O296       Al304   1.889       .  S
O297        C306   1.258       .  A
O297       Al304   1.885       .  S
O298       Al304   1.950       .  S
O299        C306   1.268       .  A
O300       Al304   1.777       .  S
O301        C302   1.254       .  A
C302        C841   1.478       .  S
C303       C1345   1.498       .  S
C306        C936   1.502       .  S
C307        O308   1.255       .  A
C307        C796   1.480       .  S
O309        C324   1.266       .  A
O309       Al317   1.935       .  S
C310        O320   1.272       .  A
C310        O311   1.255       .  A
C310        C754   1.486       .  S
O311       Al313   1.855       .  S
O312        C314   1.275       .  A
O312       Al313   1.963       .  S
Al313       O321   1.954       .  S
Al313       O323   1.873       .  S
Al313       O322   1.775       .  S
C314        O327   1.262       .  A
C314        C740   1.497       .  S
O315        C325   1.270       .  A
O315       Al317   1.963       .  S
O316        C329   1.271       .  A
O316       Al326   1.972       .  S
Al317       O330   1.849       .  S
Al317       O327   1.874       .  S
Al317       O322   1.763       .  S
O318        C325   1.261       .  A
O318       Al326   1.897       .  S
O319        C328   1.258       .  A
O319       Al326   1.881       .  S
O320       Al326   1.953       .  S
O321        C328   1.271       .  A
O322       Al326   1.781       .  S
O323        C324   1.252       .  A
C324        C799   1.470       .  S
C325        C883   1.498       .  S
C328       C1079   1.497       .  S
C329        O330   1.250       .  A
C329        C852   1.465       .  S
O331        C346   1.268       .  A
O331       Al339   1.940       .  S
C332        O342   1.271   1_565  A
C332        O333   1.255   1_565  A
C332        C698   1.477       .  S
O333       Al335   1.866       .  S
O334        C336   1.275       .  A
O334       Al335   1.953       .  S
Al335       O343   1.946       .  S
Al335       O345   1.876       .  S
Al335       O344   1.783       .  S
C336        O349   1.262   1_545  A
C336        C684   1.490   1_545  S
O337        C347   1.270       .  A
O337       Al339   1.971   1_565  S
O338        C351   1.273       .  A
O338       Al348   1.976       .  S
Al339       O352   1.849       .  S
Al339       O349   1.878   1_545  S
Al339       O344   1.773       .  S
O340        C347   1.254       .  A
O340       Al348   1.881   1_565  S
O341        C350   1.257       .  A
O341       Al348   1.875       .  S
O342       Al348   1.950       .  S
O343        C350   1.269       .  A
O344       Al348   1.772       .  S
O345        C346   1.252       .  A
C346        C726   1.476       .  S
C347       C1177   1.500       .  S
C350       C1020   1.496       .  S
C351        O352   1.255       .  A
C351        C712   1.483       .  S
O353        C368   1.269       .  A
O353       Al361   1.943       .  S
C354        O364   1.276       .  A
C354        O355   1.253       .  A
C354        C810   1.488       .  S
O355       Al357   1.848       .  S
O356        C358   1.273       .  A
O356       Al357   1.954       .  S
Al357       O365   1.949       .  S
Al357       O367   1.867       .  S
Al357       O366   1.776       .  S
C358        O371   1.262       .  A
C358        C659   1.494       .  S
O359        C369   1.270       .  A
O359       Al361   1.962       .  S
O360        C373   1.273       .  A
O360       Al370   1.981       .  S
Al361       O374   1.847       .  S
Al361       O371   1.884       .  S
Al361       O366   1.767       .  S
O362        C369   1.259       .  A
O362       Al370   1.895       .  S
O363        C372   1.261       .  A
O363       Al370   1.897       .  S
O364       Al370   1.967       .  S
O365        C372   1.269       .  A
O366       Al370   1.778       .  S
O367        C368   1.253       .  A
C368        C715   1.470       .  S
C369       C1009   1.499       .  S
C372        C897   1.505       .  S
C373        O374   1.251       .  A
C373        C670   1.471       .  S
O375        C390   1.268       .  A
O375       Al383   1.939       .  S
C376        O386   1.275       .  A
C376        O377   1.255       .  A
C376        C645   1.488       .  S
O377       Al379   1.858       .  S
O378        C380   1.275       .  A
O378       Al379   1.955       .  S
Al379       O387   1.942       .  S
Al379       O389   1.870       .  S
Al379       O388   1.777       .  S
C380        O393   1.261       .  A
C380        C757   1.486       .  S
O381        C391   1.268       .  A
O381       Al383   1.959       .  S
O382        C395   1.276       .  A
O382       Al392   1.982       .  S
Al383       O396   1.847       .  S
Al383       O393   1.875       .  S
Al383       O388   1.770       .  S
O384        C391   1.259       .  A
O384       Al392   1.888       .  S
O385        C394   1.258       .  A
O385       Al392   1.882       .  S
O386       Al392   1.966       .  S
O387        C394   1.267       .  A
O388       Al392   1.770       .  S
O389        C390   1.252       .  A
C390        C673   1.476       .  S
C391        C978   1.499       .  S
C394       C1247   1.497       .  S
C395        O396   1.254       .  A
C395        C729   1.482       .  S
O397        C412   1.263       .  A
O397       Al405   1.924       .  S
C398        O408   1.273   1_556  A
C398        O399   1.258   1_556  A
C398        C600   1.488       .  S
O399       Al401   1.870       .  S
O400        C402   1.279       .  A
O400       Al401   1.972       .  S
Al401       O409   1.949       .  S
Al401       O411   1.886       .  S
Al401       O410   1.780       .  S
C402        O415   1.263   1_554  A
C402        C771   1.496   1_554  S
O403        C413   1.264   1_554  A
O403       Al405   1.946       .  S
O404        C417   1.276       .  A
O404       Al414   1.972       .  S
Al405       O418   1.851       .  S
Al405       O415   1.877   1_554  S
Al405       O410   1.774       .  S
O406        C413   1.256       .  A
O406       Al414   1.890   1_556  S
O407        C416   1.254       .  A
O407       Al414   1.875       .  S
O408       Al414   1.954       .  S
O409        C416   1.268       .  A
O410       Al414   1.770       .  S
O411        C412   1.255       .  A
C412        C628   1.480       .  S
C413       C1443   1.490       .  S
C416       C1146   1.502       .  S
C417        O418   1.256       .  A
C417        C617   1.474       .  S
O419        C434   1.267       .  A
O419       Al427   1.934       .  S
C420        O430   1.270       .  A
C420        O421   1.254       .  A
C420        C687   1.488       .  S
O421       Al423   1.868       .  S
O422        C424   1.274       .  A
O422       Al423   1.956       .  S
Al423       O431   1.954       .  S
Al423       O433   1.866       .  S
Al423       O432   1.776       .  S
C424        O437   1.260       .  A
C424        C575   1.495       .  S
O425        C435   1.270       .  A
O425       Al427   1.959       .  S
O426        C439   1.268       .  A
O426       Al436   1.959       .  S
Al427       O440   1.856       .  S
Al427       O437   1.879       .  S
Al427       O432   1.769       .  S
O428        C435   1.260       .  A
O428       Al436   1.884       .  S
O429        C438   1.258       .  A
O429       Al436   1.878       .  S
O430       Al436   1.944       .  S
O431        C438   1.272       .  A
O432       Al436   1.774       .  S
O433        C434   1.252       .  A
C434        C614   1.469       .  S
C435       C1219   1.495       .  S
C438        C869   1.500       .  S
C439        O440   1.254       .  A
C439        C589   1.467       .  S
O441        C456   1.267       .  A
O441       Al449   1.943       .  S
C442        O452   1.273       .  A
C442        O443   1.256       .  A
C442        C743   1.482       .  S
O443       Al445   1.860       .  S
O444        C446   1.277       .  A
O444       Al445   1.970       .  S
Al445       O453   1.956       .  S
Al445       O455   1.861       .  S
Al445       O454   1.780       .  S
C446        O459   1.261       .  A
C446        C642   1.498       .  S
O447        C457   1.271       .  A
O447       Al449   1.967       .  S
O448        C461   1.271       .  A
O448       Al458   1.979       .  S
Al449       O462   1.837       .  S
Al449       O459   1.873       .  S
Al449       O454   1.765       .  S
O450        C457   1.262       .  A
O450       Al458   1.897       .  S
O451        C460   1.259       .  A
O451       Al458   1.885       .  S
O452       Al458   1.958       .  S
O453        C460   1.272       .  A
O454       Al458   1.778       .  S
O455        C456   1.248       .  A
C456        C586   1.466       .  S
C457        C922   1.500       .  S
C460       C1457   1.503       .  S
C461        O462   1.249       .  A
C461        C631   1.482       .  S
O463        C478   1.268       .  A
O463       Al471   1.933       .  S
C464        O474   1.276       .  A
C464        O465   1.255       .  A
C464        C572   1.485       .  S
O465       Al467   1.853       .  S
O466        C468   1.278       .  A
O466       Al467   1.978       .  S
Al467       O475   1.953       .  S
Al467       O477   1.868       .  S
Al467       O476   1.778       .  S
C468        O481   1.260       .  A
C468        C701   1.494       .  S
O469        C479   1.267       .  A
O469       Al471   1.948       .  S
O470        C483   1.276       .  A
O470       Al480   1.982       .  S
Al471       O484   1.843       .  S
Al471       O481   1.871       .  S
Al471       O476   1.767       .  S
O472        C479   1.259       .  A
O472       Al480   1.893       .  S
O473        C482   1.258       .  A
O473       Al480   1.886       .  S
O474       Al480   1.967       .  S
O475        C482   1.269       .  A
O476       Al480   1.771       .  S
O477        C478   1.251       .  A
C478        C544   1.478       .  S
C479       C1314   1.495   1_556  S
C482       C1331   1.507       .  S
C483        O484   1.253       .  A
C483        C558   1.483       .  S
O485        C500   1.270       .  A
O485       Al493   1.946       .  S
C486        O496   1.274       .  A
C486        O487   1.259       .  A
C486        C656   1.485       .  S
O487       Al489   1.868       .  S
O488        C490   1.273       .  A
O488       Al489   1.960       .  S
Al489       O497   1.946       .  S
Al489       O499   1.878       .  S
Al489       O498   1.776       .  S
C490        O503   1.259       .  A
C490        C827   1.497       .  S
O491        C501   1.272       .  A
O491       Al493   1.974       .  S
O492        C505   1.272       .  A
O492       Al502   1.988       .  S
Al493       O506   1.841       .  S
Al493       O503   1.874       .  S
Al493       O498   1.759       .  S
O494        C501   1.260       .  A
O494       Al502   1.887       .  S
O495        C504   1.263       .  A
O495       Al502   1.895       .  S
O496       Al502   1.958       .  S
O497        C504   1.269       .  A
O498       Al502   1.775       .  S
O499        C500   1.254       .  A
C500        C530   1.477       .  S
C501       C1132   1.500   1_565  S
C504       C1191   1.503       .  S
C505        O506   1.245       .  A
C505        C547   1.478       .  S
O507        C522   1.268       .  A
O507       Al515   1.937       .  S
C508        O518   1.274       .  A
C508        O509   1.257       .  A
C508        C785   1.489   1_655  S
O509       Al511   1.870       .  S
O510        C512   1.274       .  A
O510       Al511   1.960       .  S
Al511       O519   1.952       .  S
Al511       O521   1.870       .  S
Al511       O520   1.784       .  S
C512        O525   1.263       .  A
C512        C603   1.501   1_655  S
O513        C523   1.269   1_655  A
O513       Al515   1.962       .  S
O514        C527   1.272       .  A
O514       Al524   1.972       .  S
Al515       O528   1.852       .  S
Al515       O525   1.883       .  S
Al515       O520   1.772       .  S
O516        C523   1.260       .  A
O516       Al524   1.893   1_455  S
O517        C526   1.260       .  A
O517       Al524   1.889       .  S
O518       Al524   1.956       .  S
O519        C526   1.269       .  A
O520       Al524   1.774       .  S
O521        C522   1.252       .  A
C522        C561   1.476       .  S
C523       C1527   1.504       .  S
C526        C992   1.505       .  S
C527        O528   1.255       .  A
C527        C533   1.478       .  S
C529        C530   1.407       .  A
C529        C534   1.411       .  A
C529        H536   1.084       .  S
C530        C531   1.407       .  A
C531        C532   1.395       .  A
C531        N538   1.429       .  S
C532        C533   1.403       .  A
C532        H537   1.084       .  S
C533        C534   1.410       .  A
C534        N535   1.431       .  S
N535        H539   1.045       .  S
N535        H540   1.045       .  S
N538        H541   1.046       .  S
N538        H542   1.046       .  S
C543        C544   1.392       .  A
C543        C548   1.388       .  A
C543        H550   1.084       .  S
C544        C545   1.420       .  A
C545        C546   1.409       .  A
C545        N552   1.432       .  S
C546        C547   1.398       .  A
C546        H551   1.084       .  S
C547        C548   1.421       .  A
C548        N549   1.433       .  S
N549        H553   1.046       .  S
N549        H554   1.045       .  S
N552        H555   1.046       .  S
N552        H556   1.045       .  S
C557        C558   1.404       .  A
C557        C562   1.409       .  A
C557        H564   1.084       .  S
C558        C559   1.418       .  A
C559        C560   1.396       .  A
C559        N566   1.435       .  S
C560        C561   1.397       .  A
C560        H565   1.084       .  S
C561        C562   1.413       .  A
C562        N563   1.432       .  S
N563        H567   1.046       .  S
N563        H568   1.045       .  S
N566        H569   1.045       .  S
N566        H570   1.046       .  S
C571        C572   1.399   1_554  A
C571        C576   1.408       .  A
C571        H578   1.084       .  S
C572        C573   1.415       .  A
C573        C574   1.403   1_556  A
C573        N580   1.433       .  S
C574        C575   1.403       .  A
C574        H579   1.084       .  S
C575        C576   1.421       .  A
C576        N577   1.432       .  S
N577        H581   1.046       .  S
N577        H582   1.046       .  S
N580        H583   1.046       .  S
N580        H584   1.046       .  S
C585        C586   1.402       .  A
C585        C590   1.410       .  A
C585        H592   1.084       .  S
C586        C587   1.405       .  A
C587        C588   1.393       .  A
C587        N594   1.429       .  S
C588        C589   1.399       .  A
C588        H593   1.085       .  S
C589        C590   1.412       .  A
C590        N591   1.436       .  S
N591        H595   1.045       .  S
N591        H596   1.046       .  S
N594        H597   1.045       .  S
N594        H598   1.045       .  S
C599        C600   1.406       .  A
C599        C604   1.404       .  A
C599        H606   1.084       .  S
C600        C601   1.405       .  A
C601        C602   1.406       .  A
C601        N608   1.430       .  S
C602        C603   1.412       .  A
C602        H607   1.083       .  S
C603        C604   1.420       .  A
C604        N605   1.432   1_455  S
N605        H609   1.045       .  S
N605        H610   1.045       .  S
N608        H611   1.045       .  S
N608        H612   1.045       .  S
C613        C614   1.398       .  A
C613        C618   1.400       .  A
C613        H620   1.084       .  S
C614        C615   1.413       .  A
C615        C616   1.407       .  A
C615        N622   1.438       .  S
C616        C617   1.402       .  A
C616        H621   1.084       .  S
C617        C618   1.414       .  A
C618        N619   1.438       .  S
N619        H623   1.045       .  S
N619        H624   1.046       .  S
N622        H625   1.046       .  S
N622        H626   1.046       .  S
C627        C628   1.413       .  A
C627        C632   1.413       .  A
C627        H634   1.083       .  S
C628        C629   1.406       .  A
C629        C630   1.387       .  A
C629        N636   1.434       .  S
C630        C631   1.409       .  A
C630        H635   1.084       .  S
C631        C632   1.408       .  A
C632        N633   1.436       .  S
N633        H637   1.045       .  S
N633        H638   1.046       .  S
N636        H639   1.046       .  S
N636        H640   1.045       .  S
C641        C642   1.414       .  A
C641        C646   1.407       .  A
C641        H648   1.083       .  S
C642        C643   1.411       .  A
C643        C644   1.407       .  A
C643        N650   1.432       .  S
C644        C645   1.410       .  A
C644        H649   1.084       .  S
C645        C646   1.405       .  A
C646        N647   1.432       .  S
N647        H651   1.045       .  S
N647        H652   1.046       .  S
N650        H653   1.046       .  S
N650        H654   1.046       .  S
C655        C656   1.406       .  A
C655        C660   1.405   1_565  A
C655        H662   1.084       .  S
C656        C657   1.407   1_565  A
C657        C658   1.407       .  A
C657        N664   1.432       .  S
C658        C659   1.411       .  A
C658        H663   1.083       .  S
C659        C660   1.412       .  A
C660        N661   1.432       .  S
N661        H665   1.046       .  S
N661        H666   1.045       .  S
N664        H667   1.045       .  S
N664        H668   1.046       .  S
C669        C670   1.407       .  A
C669        C674   1.393       .  A
C669        H676   1.084       .  S
C670        C671   1.404       .  A
C671        C672   1.404       .  A
C671        N678   1.431       .  S
C672        C673   1.414       .  A
C672        H677   1.084       .  S
C673        C674   1.403       .  A
C674        N675   1.433       .  S
N675        H679   1.046       .  S
N675        H680   1.046       .  S
N678        H681   1.046       .  S
N678        H682   1.045       .  S
C683        C684   1.403       .  A
C683        C688   1.400       .  A
C683        H690   1.084       .  S
C684        C685   1.417       .  A
C685        C686   1.404       .  A
C685        N692   1.433       .  S
C686        C687   1.403       .  A
C686        H691   1.084       .  S
C687        C688   1.422       .  A
C688        N689   1.433       .  S
N689        H693   1.045       .  S
N689        H694   1.045       .  S
N692        H695   1.046       .  S
N692        H696   1.046       .  S
C697        C698   1.398       .  A
C697        C702   1.406       .  A
C697        H704   1.084       .  S
C698        C699   1.409   1_554  A
C699        C700   1.407       .  A
C699        N706   1.432       .  S
C700        C701   1.405       .  A
C700        H705   1.083       .  S
C701        C702   1.420   1_556  A
C702        N703   1.433       .  S
N703        H707   1.046       .  S
N703        H708   1.046       .  S
N706        H709   1.045       .  S
N706        H710   1.046   1_565  S
C711        C712   1.406       .  A
C711        C716   1.393       .  A
C711        H718   1.079       .  S
C712        C713   1.416       .  A
C713        C714   1.406       .  A
C713        N720   1.431       .  S
C714        C715   1.407       .  A
C714        H719   1.084       .  S
C715        C716   1.402       .  A
C716        N717   1.432       .  S
N717        H721   1.046       .  S
N717        H722   1.046       .  S
N720        H723   1.045       .  S
N720        H724   1.041       .  S
C725        C726   1.395       .  A
C725        C730   1.396       .  A
C725        H732   1.080       .  S
C726        C727   1.412       .  A
C727        C728   1.411       .  A
C727        N734   1.432       .  S
C728        C729   1.406       .  A
C728        H733   1.084       .  S
C729        C730   1.415       .  A
C730        N731   1.435       .  S
N731        H735   1.046       .  S
N731        H736   1.046       .  S
N734        H737   1.046       .  S
N734        H738   1.046       .  S
C739        C740   1.413       .  A
C739        C744   1.400       .  A
C739        H746   1.083       .  S
C740        C741   1.419       .  A
C741        C742   1.402       .  A
C741        N748   1.432       .  S
C742        C743   1.407       .  A
C742        H747   1.084       .  S
C743        C744   1.409       .  A
C744        N745   1.432       .  S
N745        H749   1.045       .  S
N745        H750   1.045       .  S
N748        H751   1.045       .  S
N748        H752   1.045       .  S
C753        C754   1.402       .  A
C753        C758   1.406       .  A
C753        H760   1.084       .  S
C754        C755   1.418       .  A
C755        C756   1.400       .  A
C755        N762   1.433       .  S
C756        C757   1.400       .  A
C756        H761   1.084       .  S
C757        C758   1.417       .  A
C758        N759   1.433       .  S
N759        H763   1.046       .  S
N759        H764   1.046       .  S
N762        H765   1.046       .  S
N762        H766   1.046       .  S
C767        C768   1.399       .  A
C767        C772   1.405       .  A
C767        H774   1.084       .  S
C768        C769   1.412       .  A
C769        C770   1.406       .  A
C769        N776   1.433       .  S
C770        C771   1.406       .  A
C770        H775   1.083   1_556  S
C771        C772   1.421       .  A
C772        N773   1.433       .  S
N773        H777   1.046       .  S
N773        H778   1.046       .  S
N776        H779   1.046       .  S
N776        H780   1.046   1_556  S
C781        C782   1.406       .  A
C781        C786   1.409       .  A
C781        H788   1.084       .  S
C782        C783   1.421       .  A
C783        C784   1.406       .  A
C783        N790   1.433       .  S
C784        C785   1.400       .  A
C784        H789   1.084       .  S
C785        C786   1.415       .  A
C786        N787   1.433   1_455  S
N787        H791   1.046   1_655  S
N787        H792   1.046       .  S
N790        H793   1.046       .  S
N790        H794   1.045       .  S
C795        C796   1.405       .  A
C795        C800   1.393       .  A
C795        H802   1.081       .  S
C796        C797   1.416       .  A
C797        C798   1.405       .  A
C797        N804   1.431       .  S
C798        C799   1.405       .  A
C798        H803   1.084       .  S
C799        C800   1.403       .  A
C800        N801   1.431       .  S
N801        H805   1.045       .  S
N801        H806   1.045       .  S
N804        H807   1.045       .  S
N804        H808   1.042       .  S
C809        C810   1.400       .  A
C809        C814   1.406       .  A
C809        H816   1.084       .  S
C810        C811   1.420       .  A
C811        C812   1.403   1_655  A
C811        N818   1.433       .  S
C812        C813   1.400       .  A
C812        H817   1.084       .  S
C813        C814   1.420   1_455  A
C814        N815   1.432       .  S
N815        H819   1.046       .  S
N815        H820   1.046   1_655  S
N818        H821   1.046       .  S
N818        H822   1.045   1_655  S
C823        C824   1.408   1_565  A
C823        C828   1.401   1_455  A
C823        H830   1.084       .  S
C824        C825   1.410   1_455  A
C825        C826   1.402   1_545  A
C825        N832   1.432       .  S
C826        C827   1.414       .  A
C826        H831   1.083       .  S
C827        C828   1.417       .  A
C828        N829   1.432       .  S
N829        H833   1.045       .  S
N829        H834   1.045       .  S
N832        H835   1.045       .  S
N832        H836   1.045       .  S
C837        C838   1.406       .  A
C837        C842   1.411       .  A
C837        H844   1.084       .  S
C838        C839   1.416       .  A
C839        C840   1.398       .  A
C839        N846   1.434       .  S
C840        C841   1.397       .  A
C840        H845   1.082       .  S
C841        C842   1.411       .  A
C842        N843   1.432       .  S
N843        H847   1.045       .  S
N843        H848   1.046       .  S
N846        H849   1.045       .  S
N846        H850   1.046       .  S
C851        C852   1.406       .  A
C851        C856   1.388       .  A
C851        H858   1.083       .  S
C852        C853   1.403       .  A
C853        C854   1.402       .  A
C853        N860   1.432       .  S
C854        C855   1.414       .  A
C854        H859   1.084       .  S
C855        C856   1.402       .  A
C856        N857   1.433       .  S
N857        H861   1.046       .  S
N857        H862   1.046       .  S
N860        H863   1.046       .  S
N860        H864   1.045       .  S
C865        C866   1.404       .  A
C865        C870   1.401       .  A
C865        H872   1.084       .  S
C866        C867   1.419       .  A
C867        C868   1.416       .  A
C867        N874   1.437       .  S
C868        C869   1.408       .  A
C868        H873   1.083       .  S
C869        C870   1.417       .  A
C870        N871   1.433       .  S
N871        H875   1.046       .  S
N871        H876   1.046       .  S
N874        H877   1.046       .  S
N874        H878   1.045       .  S
C879        C880   1.411       .  A
C879        C884   1.407       .  A
C879        H886   1.083       .  S
C880        C881   1.418       .  A
C881        C882   1.415       .  A
C881        N888   1.437       .  S
C882        C883   1.409       .  A
C882        H887   1.083       .  S
C883        C884   1.410       .  A
C884        N885   1.433       .  S
N885        H889   1.046       .  S
N885        H890   1.046       .  S
N888        H891   1.045       .  S
N888        H892   1.046       .  S
C893        C894   1.409       .  A
C893        C898   1.413       .  A
C893        H900   1.084   1_655  S
C894        C895   1.414       .  A
C895        C896   1.408       .  A
C895        N902   1.433       .  S
C896        C897   1.409       .  A
C896        H901   1.084       .  S
C897        C898   1.415       .  A
C898        N899   1.432       .  S
N899        H903   1.046   1_655  S
N899        H904   1.045       .  S
N902        H905   1.045       .  S
N902        H906   1.046       .  S
C907        C908   1.409       .  A
C907        C912   1.416       .  A
C907        H914   1.083       .  S
C908        C909   1.405       .  A
C909        C910   1.391       .  A
C909        N916   1.432       .  S
C910        C911   1.404       .  A
C910        H915   1.082       .  S
C911        C912   1.413       .  A
C912        N913   1.436       .  S
N913        H917   1.046       .  S
N913        H918   1.045       .  S
N916        H919   1.045       .  S
N916        H920   1.046       .  S
C921        C922   1.403       .  A
C921        C926   1.407       .  A
C921        H928   1.084       .  S
C922        C923   1.417       .  A
C923        C924   1.415       .  A
C923        N930   1.432       .  S
C924        C925   1.408       .  A
C924        H929   1.083       .  S
C925        C926   1.421       .  A
C926        N927   1.433       .  S
N927        H931   1.046       .  S
N927        H932   1.046       .  S
N930        H933   1.045       .  S
N930        H934   1.045       .  S
C935        C936   1.412       .  A
C935        C940   1.405       .  A
C935        H942   1.083       .  S
C936        C937   1.420       .  A
C937        C938   1.405       .  A
C937        N944   1.432       .  S
C938        C939   1.407       .  A
C938        H943   1.084       .  S
C939        C940   1.410       .  A
C940        N941   1.433       .  S
N941        H945   1.046       .  S
N941        H946   1.046       .  S
N944        H947   1.045       .  S
N944        H948   1.045       .  S
C949        C950   1.405       .  A
C949        C954   1.409       .  A
C949        H956   1.084       .  S
C950        C951   1.418       .  A
C951        C952   1.396       .  A
C951        N958   1.434       .  S
C952        C953   1.395       .  A
C952        H957   1.082       .  S
C953        C954   1.412       .  A
C954        N955   1.432       .  S
N955        H959   1.045       .  S
N955        H960   1.046       .  S
N958        H961   1.045       .  S
N958        H962   1.046       .  S
C963        C964   1.417       .  A
C963        C968   1.414       .  A
C963        H970   1.083       .  S
C964        C965   1.407       .  A
C965        C966   1.390       .  A
C965        N972   1.433       .  S
C966        C967   1.407       .  A
C966        H971   1.083       .  S
C967        C968   1.403       .  A
C968        N969   1.431       .  S
N969        H973   1.046       .  S
N969        H974   1.045       .  S
N972        H975   1.046       .  S
N972        H976   1.046       .  S
C977        C978   1.405       .  A
C977        C982   1.402       .  A
C977        H984   1.084       .  S
C978        C979   1.416       .  A
C979        C980   1.414       .  A
C979        N986   1.432       .  S
C980        C981   1.408       .  A
C980        H985   1.083       .  S
C981        C982   1.418       .  A
C982        N983   1.433       .  S
N983        H987   1.046       .  S
N983        H988   1.046       .  S
N986        H989   1.046       .  S
N986        H990   1.046       .  S
C991        C992   1.408       .  A
C991        C996   1.405       .  A
C991        H998   1.083       .  S
C992        C993   1.415       .  A
C993        C994   1.416       .  A
C993       N1000   1.431       .  S
C994        C995   1.410       .  A
C994        H999   1.084       .  S
C995        C996   1.412       .  A
C996        N997   1.432       .  S
N997       H1001   1.046       .  S
N997       H1002   1.046       .  S
N1000      H1003   1.045       .  S
N1000      H1004   1.045       .  S
C1005      C1006   1.412       .  A
C1005      C1010   1.405       .  A
C1005      H1012   1.083       .  S
C1006      C1007   1.420       .  A
C1007      C1008   1.408       .  A
C1007      N1014   1.432       .  S
C1008      C1009   1.409       .  A
C1008      H1013   1.083       .  S
C1009      C1010   1.417       .  A
C1010      N1011   1.433       .  S
N1011      H1015   1.044       .  S
N1011      H1016   1.046       .  S
N1014      H1017   1.045       .  S
N1014      H1018   1.045       .  S
C1019      C1020   1.406       .  A
C1019      C1024   1.408       .  A
C1019      H1026   1.084       .  S
C1020      C1021   1.415       .  A
C1021      C1022   1.401       .  A
C1021      N1028   1.433       .  S
C1022      C1023   1.407       .  A
C1022      H1027   1.084       .  S
C1023      C1024   1.423       .  A
C1024      N1025   1.432   1_554  S
N1025      H1029   1.044       .  S
N1025      H1030   1.045       .  S
N1028      H1031   1.046       .  S
N1028      H1032   1.046       .  S
C1033      C1034   1.410       .  A
C1033      C1038   1.406   1_656  A
C1033      H1040   1.084       .  S
C1034      C1035   1.410   1_556  A
C1035      C1036   1.411       .  A
C1035      N1042   1.432       .  S
C1036      C1037   1.412   1_655  A
C1036      H1041   1.084   1_655  S
C1037      C1038   1.410       .  A
C1038      N1039   1.432       .  S
N1039      H1043   1.046       .  S
N1039      H1044   1.046       .  S
N1042      H1045   1.046       .  S
N1042      H1046   1.046       .  S
C1047      C1048   1.393       .  A
C1047      C1052   1.393       .  A
C1047      H1054   1.084       .  S
C1048      C1049   1.410       .  A
C1049      C1050   1.412       .  A
C1049      N1056   1.432       .  S
C1050      C1051   1.407       .  A
C1050      H1055   1.083       .  S
C1051      C1052   1.418       .  A
C1052      N1053   1.432       .  S
N1053      H1057   1.046       .  S
N1053      H1058   1.043       .  S
N1056      H1059   1.045       .  S
N1056      H1060   1.045       .  S
C1061      C1062   1.404       .  A
C1061      C1066   1.401       .  A
C1061      H1068   1.084       .  S
C1062      C1063   1.422       .  A
C1063      C1064   1.407       .  A
C1063      N1070   1.432   1_655  S
C1064      C1065   1.407       .  A
C1064      H1069   1.084       .  S
C1065      C1066   1.418       .  A
C1066      N1067   1.433       .  S
N1067      H1071   1.046       .  S
N1067      H1072   1.046       .  S
N1070      H1073   1.046       .  S
N1070      H1074   1.044       .  S
C1075      C1076   1.407       .  A
C1075      C1080   1.403       .  A
C1075      H1082   1.084       .  S
C1076      C1077   1.415       .  A
C1077      C1078   1.414       .  A
C1077      N1084   1.432       .  S
C1078      C1079   1.408       .  A
C1078      H1083   1.084       .  S
C1079      C1080   1.415       .  A
C1080      N1081   1.433       .  S
N1081      H1085   1.046       .  S
N1081      H1086   1.046       .  S
N1084      H1087   1.045       .  S
N1084      H1088   1.045       .  S
C1089      C1090   1.404       .  A
C1089      C1094   1.401       .  A
C1089      H1096   1.084       .  S
C1090      C1091   1.420       .  A
C1091      C1092   1.408       .  A
C1091      N1098   1.433       .  S
C1092      C1093   1.401       .  A
C1092      H1097   1.084       .  S
C1093      C1094   1.421       .  A
C1094      N1095   1.433       .  S
N1095      H1099   1.044   1_556  S
N1095      H1100   1.046   1_556  S
N1098      H1101   1.045       .  S
N1098      H1102   1.046       .  S
C1103      C1104   1.397       .  A
C1103      C1108   1.399       .  A
C1103      H1110   1.081       .  S
C1104      C1105   1.408       .  A
C1105      C1106   1.407       .  A
C1105      N1112   1.432       .  S
C1106      C1107   1.404       .  A
C1106      H1111   1.084       .  S
C1107      C1108   1.416       .  A
C1108      N1109   1.438       .  S
N1109      H1113   1.046       .  S
N1109      H1114   1.045       .  S
N1112      H1115   1.046       .  S
N1112      H1116   1.045       .  S
C1117      C1118   1.399       .  A
C1117      C1122   1.399       .  A
C1117      H1124   1.083       .  S
C1118      C1119   1.405       .  A
C1119      C1120   1.407       .  A
C1119      N1126   1.432       .  S
C1120      C1121   1.406       .  A
C1120      H1125   1.084       .  S
C1121      C1122   1.404       .  A
C1122      N1123   1.431       .  S
N1123      H1127   1.042       .  S
N1123      H1128   1.046       .  S
N1126      H1129   1.045       .  S
N1126      H1130   1.045       .  S
C1131      C1132   1.406       .  A
C1131      C1136   1.405       .  A
C1131      H1138   1.083       .  S
C1132      C1133   1.415       .  A
C1133      C1134   1.413       .  A
C1133      N1140   1.429   1_545  S
C1134      C1135   1.407       .  A
C1134      H1139   1.083       .  S
C1135      C1136   1.418       .  A
C1136      N1137   1.433       .  S
N1137      H1141   1.046       .  S
N1137      H1142   1.046       .  S
N1140      H1143   1.045       .  S
N1140      H1144   1.045       .  S
C1145      C1146   1.407       .  A
C1145      C1150   1.408       .  A
C1145      H1152   1.083       .  S
C1146      C1147   1.419       .  A
C1147      C1148   1.404       .  A
C1147      N1154   1.433       .  S
C1148      C1149   1.404       .  A
C1148      H1153   1.084       .  S
C1149      C1150   1.423       .  A
C1150      N1151   1.432       .  S
N1151      H1155   1.043   1_455  S
N1151      H1156   1.046       .  S
N1154      H1157   1.046       .  S
N1154      H1158   1.046       .  S
C1159      C1160   1.399       .  A
C1159      C1164   1.409       .  A
C1159      H1166   1.084       .  S
C1160      C1161   1.414       .  A
C1161      C1162   1.407       .  A
C1161      N1168   1.433   1_455  S
C1162      C1163   1.404       .  A
C1162      H1167   1.083   1_565  S
C1163      C1164   1.424       .  A
C1164      N1165   1.433       .  S
N1165      H1169   1.046       .  S
N1165      H1170   1.046       .  S
N1168      H1171   1.046       .  S
N1168      H1172   1.046       .  S
C1173      C1174   1.407       .  A
C1173      C1178   1.401       .  A
C1173      H1180   1.084       .  S
C1174      C1175   1.415       .  A
C1175      C1176   1.413       .  A
C1175      N1182   1.432       .  S
C1176      C1177   1.409       .  A
C1176      H1181   1.084       .  S
C1177      C1178   1.421       .  A
C1178      N1179   1.434       .  S
N1179      H1183   1.044       .  S
N1179      H1184   1.045       .  S
N1182      H1185   1.045       .  S
N1182      H1186   1.046       .  S
C1187      C1188   1.408       .  A
C1187      C1192   1.407       .  A
C1187      H1194   1.083       .  S
C1188      C1189   1.411       .  A
C1189      C1190   1.405       .  A
C1189      N1196   1.432       .  S
C1190      C1191   1.409       .  A
C1190      H1195   1.083       .  S
C1191      C1192   1.422       .  A
C1192      N1193   1.432       .  S
N1193      H1197   1.045       .  S
N1193      H1198   1.045       .  S
N1196      H1199   1.046       .  S
N1196      H1200   1.045       .  S
C1201      C1202   1.405       .  A
C1201      C1206   1.391       .  A
C1201      H1208   1.084       .  S
C1202      C1203   1.400       .  A
C1203      C1204   1.408       .  A
C1203      N1210   1.431       .  S
C1204      C1205   1.414       .  A
C1204      H1209   1.084       .  S
C1205      C1206   1.404       .  A
C1206      N1207   1.433       .  S
N1207      H1211   1.046       .  S
N1207      H1212   1.046       .  S
N1210      H1213   1.046       .  S
N1210      H1214   1.045       .  S
C1215      C1216   1.407       .  A
C1215      C1220   1.411       .  A
C1215      H1222   1.084       .  S
C1216      C1217   1.412       .  A
C1217      C1218   1.400       .  A
C1217      N1224   1.433       .  S
C1218      C1219   1.407       .  A
C1218      H1223   1.084       .  S
C1219      C1220   1.414       .  A
C1220      N1221   1.432       .  S
N1221      H1225   1.046       .  S
N1221      H1226   1.046       .  S
N1224      H1227   1.046       .  S
N1224      H1228   1.046       .  S
C1229      C1230   1.413       .  A
C1229      C1234   1.406       .  A
C1229      H1236   1.084       .  S
C1230      C1231   1.413       .  A
C1231      C1232   1.398       .  A
C1231      N1238   1.433       .  S
C1232      C1233   1.412       .  A
C1232      H1237   1.084       .  S
C1233      C1234   1.413       .  A
C1234      N1235   1.431       .  S
N1235      H1239   1.045       .  S
N1235      H1240   1.044       .  S
N1238      H1241   1.045       .  S
N1238      H1242   1.046       .  S
C1243      C1244   1.409       .  A
C1243      C1248   1.410       .  A
C1243      H1250   1.082       .  S
C1244      C1245   1.416       .  A
C1245      C1246   1.399       .  A
C1245      N1252   1.432       .  S
C1246      C1247   1.408       .  A
C1246      H1251   1.084       .  S
C1247      C1248   1.413       .  A
C1248      N1249   1.432       .  S
N1249      H1253   1.046       .  S
N1249      H1254   1.046       .  S
N1252      H1255   1.046       .  S
N1252      H1256   1.043       .  S
C1257      C1258   1.412       .  A
C1257      C1262   1.404   1_554  A
C1257      H1264   1.083       .  S
C1258      C1259   1.411       .  A
C1259      C1260   1.409   1_554  A
C1259      N1266   1.431       .  S
C1260      C1261   1.408       .  A
C1260      H1265   1.084       .  S
C1261      C1262   1.408       .  A
C1262      N1263   1.433       .  S
N1263      H1267   1.046       .  S
N1263      H1268   1.045       .  S
N1266      H1269   1.045       .  S
N1266      H1270   1.045       .  S
C1271      C1272   1.406       .  A
C1271      C1276   1.406   1_655  A
C1271      H1278   1.084       .  S
C1272      C1273   1.422       .  A
C1273      C1274   1.404       .  A
C1273      N1280   1.433       .  S
C1274      C1275   1.398   1_655  A
C1274      H1279   1.084       .  S
C1275      C1276   1.420       .  A
C1276      N1277   1.433       .  S
N1277      H1281   1.044       .  S
N1277      H1282   1.046       .  S
N1280      H1283   1.046       .  S
N1280      H1284   1.046       .  S
C1285      C1286   1.409       .  A
C1285      C1290   1.414       .  A
C1285      H1292   1.084       .  S
C1286      C1287   1.407       .  A
C1287      C1288   1.395       .  A
C1287      N1294   1.433       .  S
C1288      C1289   1.409       .  A
C1288      H1293   1.084       .  S
C1289      C1290   1.412       .  A
C1290      N1291   1.431       .  S
N1291      H1295   1.045       .  S
N1291      H1296   1.046       .  S
N1294      H1297   1.046       .  S
N1294      H1298   1.046       .  S
C1299      C1300   1.401       .  A
C1299      C1304   1.413       .  A
C1299      H1306   1.083       .  S
C1300      C1301   1.416       .  A
C1301      C1302   1.390       .  A
C1301      N1308   1.433       .  S
C1302      C1303   1.394       .  A
C1302      H1307   1.084       .  S
C1303      C1304   1.419       .  A
C1304      N1305   1.432       .  S
N1305      H1309   1.045       .  S
N1305      H1310   1.046       .  S
N1308      H1311   1.045       .  S
N1308      H1312   1.046       .  S
C1313      C1314   1.409       .  A
C1313      C1318   1.411       .  A
C1313      H1320   1.084   1_554  S
C1314      C1315   1.412       .  A
C1315      C1316   1.406       .  A
C1315      N1322   1.433       .  S
C1316      C1317   1.410       .  A
C1316      H1321   1.083       .  S
C1317      C1318   1.413       .  A
C1318      N1319   1.432       .  S
N1319      H1323   1.046       .  S
N1319      H1324   1.046   1_554  S
N1322      H1325   1.045       .  S
N1322      H1326   1.046       .  S
C1327      C1328   1.409       .  A
C1327      C1332   1.409       .  A
C1327      H1334   1.080       .  S
C1328      C1329   1.410       .  A
C1329      C1330   1.407       .  A
C1329      N1336   1.433       .  S
C1330      C1331   1.412       .  A
C1330      H1335   1.083       .  S
C1331      C1332   1.420       .  A
C1332      N1333   1.432       .  S
N1333      H1337   1.045       .  S
N1333      H1338   1.045       .  S
N1336      H1339   1.046       .  S
N1336      H1340   1.046       .  S
C1341      C1342   1.408       .  A
C1341      C1346   1.402       .  A
C1341      H1348   1.084       .  S
C1342      C1343   1.414       .  A
C1343      C1344   1.410       .  A
C1343      N1350   1.432       .  S
C1344      C1345   1.408       .  A
C1344      H1349   1.084       .  S
C1345      C1346   1.420       .  A
C1346      N1347   1.433       .  S
N1347      H1351   1.044       .  S
N1347      H1352   1.045       .  S
N1350      H1353   1.046       .  S
N1350      H1354   1.046       .  S
C1355      C1356   1.406       .  A
C1355      C1360   1.404       .  A
C1355      H1362   1.084       .  S
C1356      C1357   1.428       .  A
C1357      C1358   1.401       .  A
C1357      N1364   1.433       .  S
C1358      C1359   1.398       .  A
C1358      H1363   1.084       .  S
C1359      C1360   1.420       .  A
C1360      N1361   1.433       .  S
N1361      H1365   1.044       .  S
N1361      H1366   1.046       .  S
N1364      H1367   1.046       .  S
N1364      H1368   1.045       .  S
C1369      C1370   1.411       .  A
C1369      C1374   1.403       .  A
C1369      H1376   1.084       .  S
C1370      C1371   1.415       .  A
C1371      C1372   1.400       .  A
C1371      N1378   1.432       .  S
C1372      C1373   1.411       .  A
C1372      H1377   1.084       .  S
C1373      C1374   1.415       .  A
C1374      N1375   1.431       .  S
N1375      H1379   1.045       .  S
N1375      H1380   1.044       .  S
N1378      H1381   1.045       .  S
N1378      H1382   1.045       .  S
C1383      C1384   1.409       .  A
C1383      C1388   1.405       .  A
C1383      H1390   1.083       .  S
C1384      C1385   1.416       .  A
C1385      C1386   1.417   1_545  A
C1385      N1392   1.432       .  S
C1386      C1387   1.410   1_565  A
C1386      H1391   1.084       .  S
C1387      C1388   1.412       .  A
C1388      N1389   1.433       .  S
N1389      H1393   1.046       .  S
N1389      H1394   1.045       .  S
N1392      H1395   1.045   1_545  S
N1392      H1396   1.045       .  S
C1397      C1398   1.396   1_545  A
C1397      C1402   1.405       .  A
C1397      H1404   1.084       .  S
C1398      C1399   1.412       .  A
C1399      C1400   1.406   1_565  A
C1399      N1406   1.433       .  S
C1400      C1401   1.404       .  A
C1400      H1405   1.083   1_556  S
C1401      C1402   1.424       .  A
C1402      N1403   1.433       .  S
N1403      H1407   1.046       .  S
N1403      H1408   1.046       .  S
N1406      H1409   1.046       .  S
N1406      H1410   1.046       .  S
C1411      C1412   1.401       .  A
C1411      C1416   1.402   1_565  A
C1411      H1418   1.084       .  S
C1412      C1413   1.417       .  A
C1413      C1414   1.408   1_565  A
C1413      N1420   1.438       .  S
C1414      C1415   1.403       .  A
C1414      H1419   1.083       .  S
C1415      C1416   1.417       .  A
C1416      N1417   1.433       .  S
N1417      H1421   1.046   1_545  S
N1417      H1422   1.046       .  S
N1420      H1423   1.046       .  S
N1420      H1424   1.046       .  S
C1425      C1426   1.414       .  A
C1425      C1430   1.404       .  A
C1425      H1432   1.084       .  S
C1426      C1427   1.409       .  A
C1427      C1428   1.390       .  A
C1427      N1434   1.433       .  S
C1428      C1429   1.405       .  A
C1428      H1433   1.083       .  S
C1429      C1430   1.403       .  A
C1430      N1431   1.432       .  S
N1431      H1435   1.045       .  S
N1431      H1436   1.046       .  S
N1434      H1437   1.046       .  S
N1434      H1438   1.044       .  S
C1439      C1440   1.407       .  A
C1439      C1444   1.401       .  A
C1439      H1446   1.084       .  S
C1440      C1441   1.418       .  A
C1441      C1442   1.413       .  A
C1441      N1448   1.438       .  S
C1442      C1443   1.407       .  A
C1442      H1447   1.084       .  S
C1443      C1444   1.408       .  A
C1444      N1445   1.430       .  S
N1445      H1449   1.046       .  S
N1445      H1450   1.046       .  S
N1448      H1451   1.046       .  S
N1448      H1452   1.046       .  S
C1453      C1454   1.404       .  A
C1453      C1458   1.405       .  A
C1453      H1460   1.084       .  S
C1454      C1455   1.417       .  A
C1455      C1456   1.414       .  A
C1455      N1462   1.432       .  S
C1456      C1457   1.408       .  A
C1456      H1461   1.083       .  S
C1457      C1458   1.418       .  A
C1458      N1459   1.433       .  S
N1459      H1463   1.046       .  S
N1459      H1464   1.046       .  S
N1462      H1465   1.045       .  S
N1462      H1466   1.045       .  S
C1467      C1468   1.412       .  A
C1467      C1472   1.408       .  A
C1467      H1474   1.083       .  S
C1468      C1469   1.413       .  A
C1469      C1470   1.408       .  A
C1469      N1476   1.432       .  S
C1470      C1471   1.407       .  A
C1470      H1475   1.084       .  S
C1471      C1472   1.407       .  A
C1472      N1473   1.432       .  S
N1473      H1477   1.046       .  S
N1473      H1478   1.045       .  S
N1476      H1479   1.046       .  S
N1476      H1480   1.046       .  S
C1481      C1482   1.409       .  A
C1481      C1486   1.412       .  A
C1481      H1488   1.084       .  S
C1482      C1483   1.403       .  A
C1483      C1484   1.402       .  A
C1483      N1490   1.433       .  S
C1484      C1485   1.414       .  A
C1484      H1489   1.083       .  S
C1485      C1486   1.414       .  A
C1486      N1487   1.437       .  S
N1487      H1491   1.046       .  S
N1487      H1492   1.046       .  S
N1490      H1493   1.046       .  S
N1490      H1494   1.045       .  S
C1495      C1496   1.396       .  A
C1495      C1500   1.394       .  A
C1495      H1502   1.084       .  S
C1496      C1497   1.410       .  A
C1497      C1498   1.408       .  A
C1497      N1504   1.432       .  S
C1498      C1499   1.405       .  A
C1498      H1503   1.084       .  S
C1499      C1500   1.417       .  A
C1500      N1501   1.434       .  S
N1501      H1505   1.046       .  S
N1501      H1506   1.045       .  S
N1504      H1507   1.045       .  S
N1504      H1508   1.045       .  S
C1509      C1510   1.405       .  A
C1509      C1514   1.397       .  A
C1509      H1516   1.084       .  S
C1510      C1511   1.412       .  A
C1511      C1512   1.411       .  A
C1511      N1518   1.437       .  S
C1512      C1513   1.404       .  A
C1512      H1517   1.084       .  S
C1513      C1514   1.404       .  A
C1514      N1515   1.431       .  S
N1515      H1519   1.046       .  S
N1515      H1520   1.045       .  S
N1518      H1521   1.045       .  S
N1518      H1522   1.046       .  S
C1523      C1524   1.409       .  A
C1523      C1528   1.415       .  A
C1523      H1530   1.083       .  S
C1524      C1525   1.417       .  A
C1525      C1526   1.405       .  A
C1525      N1532   1.433       .  S
C1526      C1527   1.407       .  A
C1526      H1531   1.084       .  S
C1527      C1528   1.416       .  A
C1528      N1529   1.432       .  S
N1529      H1533   1.046       .  S
N1529      H1534   1.045       .  S
N1532      H1535   1.046       .  S
N1532      H1536   1.046       .  S
