geometry optimzed in LAMMPS
_audit_creation_date              2020-11-30 
_audit_creation_method            'lammps2cif' 
_symmetry_space_group_name_H-M    'P1' 
_symmetry_Int_Tables_number       1 
_symmetry_cell_setting            triclinic 
loop_ 
_symmetry_equiv_pos_as_xyz 
  x,y,z 
_cell_length_a                    43.49218948 
_cell_length_b                    43.48549707084714 
_cell_length_c                    31.476393818625294 
_cell_angle_alpha                 89.8616015990152 
_cell_angle_beta                  89.9571550262929 
_cell_angle_gamma                 119.92713274088345 
loop_ 
_atom_site_label 
_atom_site_type_symbol 
_atom_site_fract_x 
_atom_site_fract_y 
_atom_site_fract_z 
_atom_site_charge 
O1          O  0.21823842  0.78544346  0.12577098    -0.83900
O2          O  0.25360897  0.75960061  0.17248729    -0.81000
C3          C  0.28341368  0.78643440  0.18138920     0.99500
O4          O  0.28480901  0.80975890  0.20623161    -0.81000
O5          O  0.26429247  0.85019217  0.25272636    -0.83600
C6          C  0.26183704  0.87068484  0.22586329     1.04100
O7          O  0.23813169  0.85777947  0.19776409    -0.76400
O8          O  0.18591460  0.80894802  0.14440605    -0.76600
C9          C  0.20206403  0.80168890  0.11599821     1.04000
O10         O  0.15270959  0.73904585  0.16930279    -0.83900
O11         O  0.18928264  0.71772742  0.22092514    -0.81000
C12         C  0.21114387  0.71850837  0.24766061     0.99600
O13         O  0.23890155  0.74774042  0.25567076    -0.81000
O14         O  0.21298871  0.78608652  0.29529517    -0.83600
C15         C  0.19807999  0.80409625  0.30176092     1.04000
O16         O  0.19529065  0.82218663  0.27181061    -0.76400
O17         O  0.14681926  0.77085816  0.21906895    -0.76600
C18         C  0.13320389  0.74486133  0.19413551     1.04000
Cr19       Cr  0.20426305  0.75308791  0.17475774     1.93700
Cr20       Cr  0.24785648  0.79782266  0.24958726     1.93200
Cr21       Cr  0.19325103  0.81312249  0.20831085     1.39100
O22         O  0.21515822  0.78809107  0.21069515    -1.21700
O23         O  0.21287993  0.78765345  0.62228409    -0.83900
O24         O  0.24980959  0.76179297  0.66535917    -0.81000
C25         C  0.27913947  0.78880980  0.67510914     0.99500
O26         O  0.27989607  0.81128872  0.70086819    -0.81000
O27         O  0.25726132  0.84805991  0.75140301    -0.83600
C28         C  0.25288887  0.86880495  0.72693205     1.04100
O29         O  0.22878863  0.85612016  0.69927287    -0.76400
O30         O  0.17821565  0.80778268  0.64364164    -0.76600
C31         C  0.19522547  0.80269064  0.61417492     1.04000
O32         O  0.14806453  0.73771853  0.66351463    -0.83900
O33         O  0.18635134  0.71645304  0.71295901    -0.81000
C34         C  0.20908677  0.71746389  0.73852531     0.99600
O35         O  0.23609510  0.74704286  0.74745180    -0.81000
O36         O  0.20857695  0.78172010  0.79145733    -0.83600
C37         C  0.19310606  0.79870440  0.80063911     1.04000
O38         O  0.18762427  0.81611404  0.77204085    -0.76400
O39         O  0.14038817  0.76523927  0.71686341    -0.76600
C40         C  0.12763453  0.74102978  0.68945237     1.04000
Cr41       Cr  0.19995592  0.75340612  0.66889025     1.93700
Cr42       Cr  0.24298705  0.79643853  0.74493210     1.93200
Cr43       Cr  0.18551786  0.80959678  0.70779208     1.39100
O44         O  0.20959308  0.78667766  0.70702093    -1.21700
O45         O  0.20550936  0.43206197  0.29103145    -0.83900
O46         O  0.23160968  0.49382125  0.33579465    -0.81000
C47         C  0.20477246  0.49575139  0.34778977     0.99500
O48         O  0.18325822  0.47362902  0.37414538    -0.81000
O49         O  0.14764320  0.41261190  0.42191980    -0.83600
C50         C  0.12700864  0.38903765  0.39600584     1.04100
O51         O  0.13957132  0.37828809  0.36733037    -0.76400
O52         O  0.18754178  0.37719210  0.31007782    -0.76600
C53         C  0.19137347  0.39972282  0.28179568     1.04000
O54         O  0.25717422  0.41704342  0.32854941    -0.83900
O55         O  0.27845759  0.47545331  0.37942411    -0.81000
C56         C  0.27757098  0.49609854  0.40668838     0.99600
O57         O  0.24803469  0.49267963  0.41793573    -0.81000
O58         O  0.21422394  0.42900830  0.46007697    -0.83600
C59         C  0.19701201  0.39624132  0.46766125     1.04000
O60         O  0.17959020  0.37458114  0.43821170    -0.76400
O61         O  0.23072829  0.38007563  0.38111243    -0.76600
C62         C  0.25473982  0.39276421  0.35315131     1.04000
Cr63       Cr  0.24077099  0.45268932  0.33656359     1.93700
Cr64       Cr  0.19895295  0.45020872  0.41553351     1.93200
Cr65       Cr  0.18602116  0.38101546  0.37426852     1.39100
O66         O  0.20854084  0.42795814  0.37541915    -1.21700
O67         O  0.20434608  0.42779926  0.78637726    -0.83900
O68         O  0.23276050  0.49263091  0.82631066    -0.81000
C69         C  0.20585284  0.49495580  0.83645857     0.99500
O70         O  0.18405349  0.47345572  0.86306334    -0.81000
O71         O  0.14915013  0.41543164  0.91645041    -0.83600
C72         C  0.12824961  0.38858996  0.89454945     1.04100
O73         O  0.14070107  0.37593173  0.86802993    -0.76400
O74         O  0.18782369  0.37414024  0.80988796    -0.76600
C75         C  0.19069496  0.39498625  0.77974249     1.04000
O76         O  0.25694036  0.41555528  0.82354095    -0.83900
O77         O  0.27995353  0.47601639  0.87140400    -0.79800
C78         C  0.27948187  0.49767349  0.89760515     0.99600
O79         O  0.25009768  0.49538067  0.90767840    -0.81000
O80         O  0.21621356  0.43507576  0.95507408    -0.83600
C81         C  0.20049441  0.40298833  0.96596522     1.04000
O82         O  0.18431784  0.37894230  0.93832720    -0.76400
O83         O  0.23443299  0.38219716  0.87982012    -0.76600
C84         C  0.25659408  0.39330975  0.84968654     1.04000
Cr85       Cr  0.24106204  0.45120950  0.82999606     1.93700
Cr86       Cr  0.20044248  0.45288647  0.90765498     1.93200
Cr87       Cr  0.18850031  0.38137355  0.87384447     1.39100
O88         O  0.20983157  0.42833407  0.87060229    -1.21700
O89         O  0.56660540  0.78198975  0.95479289    -0.83900
O90         O  0.50285898  0.74315675  0.99639330    -0.81000
C91         C  0.50164689  0.71386855  0.00378640     0.99500
O92         O  0.52359456  0.71315549  0.02929750    -0.81000
O93         O  0.58292281  0.73627701  0.08051210    -0.83600
C94         C  0.60969802  0.74400419  0.05736332     1.04100
O95         O  0.62089749  0.76957998  0.03172516    -0.76400
O96         O  0.62053279  0.81887105  0.97749171    -0.76600
C97         C  0.59940202  0.80076747  0.94781894     1.04000
O98         O  0.57902269  0.84599392  0.99591138    -0.83900
O99         O  0.51970646  0.80541035  0.04573702    -0.81000
C100        C  0.49909474  0.78250249  0.07215654     0.99600
O101        O  0.50132471  0.75488468  0.07891190    -0.81000
O102        O  0.56225964  0.78085312  0.12395725    -0.83600
C103        C  0.59443724  0.79831418  0.13408794     1.04000
O104        O  0.61826582  0.80742393  0.10567585    -0.76400
O105        O  0.61292029  0.85482704  0.05081909    -0.76600
C106        C  0.60229192  0.86717929  0.02173746     1.04000
Cr107      Cr  0.54378375  0.79347550  0.00108963     1.93700
Cr108      Cr  0.54436522  0.74886109  0.07527803     1.93200
Cr109      Cr  0.61456114  0.81070639  0.04137924     1.39100
O110        O  0.56771854  0.78428738  0.03930024    -1.21700
O111        O  0.56181795  0.78004198  0.45686694    -0.83900
O112        O  0.49904794  0.74351343  0.50041357    -0.81000
C113        C  0.49670843  0.71399071  0.50933350     0.99500
O114        O  0.51809636  0.71280222  0.53531896    -0.81000
O115        O  0.57727666  0.73437223  0.58497856    -0.83600
C116        C  0.60142450  0.73801162  0.55958566     1.04100
O117        O  0.61332522  0.76255936  0.53228612    -0.76400
O118        O  0.61661007  0.81433021  0.47806080    -0.76600
C119        C  0.59458037  0.79700232  0.44895405     1.04000
O120        O  0.57714236  0.84490224  0.49872840    -0.83900
O121        O  0.51736231  0.80637361  0.54853129    -0.81000
C122        C  0.49594485  0.78342721  0.57437808     0.99600
O123        O  0.49870153  0.75652023  0.58324268    -0.81000
O124        O  0.56144697  0.78306181  0.62703464    -0.83600
C125        C  0.59412787  0.79783243  0.63498021     1.04000
O126        O  0.61627709  0.80353957  0.60546107    -0.76400
O127        O  0.61342169  0.85262291  0.55095657    -0.76600
C128        C  0.60157366  0.86545124  0.52374829     1.04000
Cr129      Cr  0.54070400  0.79305735  0.50399794     1.93700
Cr130      Cr  0.54072320  0.74929159  0.57974892     1.93200
Cr131      Cr  0.61132443  0.80652719  0.54174476     1.39100
O132        O  0.56431883  0.78306521  0.54188732    -1.21700
O133        O  0.77345226  0.21796644  0.38154876    -0.83900
O134        O  0.74215466  0.24521677  0.43232811    -0.81000
C135        C  0.71236990  0.21840239  0.44117508     0.99500
O136        O  0.71089706  0.19485256  0.46591345    -0.81000
O137        O  0.73173089  0.15276827  0.50893946    -0.83600
C138        C  0.73274484  0.13205394  0.48136996     1.04100
O139        O  0.75527537  0.14458959  0.45172469    -0.76400
O140        O  0.80552429  0.19328965  0.39568034    -0.76600
C141        C  0.78895635  0.20174842  0.36914484     1.04000
O142        O  0.84112311  0.26256891  0.41995227    -0.83900
O143        O  0.80837205  0.28523806  0.47646481    -0.81000
C144        C  0.78725305  0.28511870  0.50389415     0.99600
O145        O  0.76003754  0.25608587  0.51439505    -0.81000
O146        O  0.78564838  0.21554753  0.55030378    -0.83600
C147        C  0.79908281  0.19594590  0.55470498     1.04000
O148        O  0.80137398  0.17891535  0.52324487    -0.76400
O149        O  0.84892862  0.23055913  0.46775208    -0.76600
C150        C  0.86170695  0.25615453  0.44187979     1.04000
Cr151      Cr  0.79057912  0.25006623  0.43035054     1.93700
Cr152      Cr  0.74938511  0.20545545  0.50685625     1.93200
Cr153      Cr  0.80119313  0.18878008  0.46000105     1.39100
O154        O  0.78041094  0.21471182  0.46569279    -1.21700
O155        O  0.77825501  0.21673173  0.87306495    -0.83900
O156        O  0.74100233  0.24313037  0.91488345    -0.81000
C157        C  0.71117894  0.21604271  0.92301393     0.99500
O158        O  0.70904349  0.19318583  0.94935336    -0.81000
O159        O  0.72927314  0.15467200  0.00097762    -0.83600
C160        C  0.73408775  0.13411078  0.97679641     1.04100
O161        O  0.75929444  0.14699579  0.95048514    -0.76400
O162        O  0.81136414  0.19527016  0.89647400    -0.76600
C163        C  0.79530433  0.20080457  0.86628238     1.04000
O164        O  0.84222928  0.26528420  0.91637894    -0.83900
O165        O  0.80340196  0.28688003  0.96503457    -0.81000
C166        C  0.78054977  0.28572822  0.99069635     0.99600
O167        O  0.75254448  0.25639681  0.99770888    -0.81000
O168        O  0.77752000  0.22015077  0.04256320    -0.83600
C169        C  0.79361477  0.20387411  0.05223260     1.04000
O170        O  0.79936550  0.18629260  0.02427938    -0.76400
O171        O  0.84865287  0.23697523  0.96992449    -0.76600
C172        C  0.86218895  0.26102947  0.94212387     1.04000
Cr173      Cr  0.79040971  0.25050570  0.92027632     1.93700
Cr174      Cr  0.74465412  0.20666458  0.99480246     1.93200
Cr175      Cr  0.80282245  0.19314540  0.96014380     1.39100
O176        O  0.77921358  0.21658412  0.95824551    -1.21700
O177        O  0.78924990  0.57286906  0.04720632    -0.83900
O178        O  0.75970460  0.50993011  0.09139301    -0.81000
C179        C  0.78605108  0.50630175  0.10092771     0.99500
O180        O  0.80859082  0.52719065  0.12719668    -0.81000
O181        O  0.84759399  0.58637067  0.17682819    -0.83600
C182        C  0.86910624  0.61043837  0.15191323     1.04100
O183        O  0.85754615  0.62239435  0.12343514    -0.76400
O184        O  0.81141282  0.62815207  0.06738251    -0.76600
C185        C  0.80501315  0.60548466  0.03837286     1.04000
O186        O  0.74196210  0.59184799  0.08673522    -0.83900
O187        O  0.71662271  0.53189609  0.13734580    -0.81000
C188        C  0.71636192  0.51025355  0.16427399     0.99600
O189        O  0.74508463  0.51105958  0.17377463    -0.81000
O190        O  0.78307578  0.57350297  0.21667542    -0.83600
C191        C  0.80173933  0.60604469  0.22480684     1.04000
O192        O  0.81966560  0.62791812  0.19554671    -0.76400
O193        O  0.77045549  0.62772484  0.13926538    -0.76600
C194        C  0.74739935  0.61758952  0.11044039     1.04000
Cr195      Cr  0.75430957  0.55333441  0.09361404     1.93700
Cr196      Cr  0.79554328  0.55139073  0.17063534     1.93200
Cr197      Cr  0.81289075  0.62296458  0.13150369     1.39100
O198        O  0.78754946  0.57598152  0.13197322    -1.21700
O199        O  0.79047182  0.57679163  0.54305321    -0.83900
O200        O  0.76249403  0.51103065  0.58162260    -0.81000
C201        C  0.78855095  0.50800387  0.59403826     0.99500
O202        O  0.80943574  0.52922201  0.62134098    -0.81000
O203        O  0.84277218  0.58703310  0.67367754    -0.83600
C204        C  0.86313787  0.61301561  0.65011571     1.04100
O205        O  0.85065988  0.62618943  0.62441097    -0.76400
O206        O  0.80377100  0.62907381  0.56788235    -0.76600
C207        C  0.80272528  0.60951534  0.53740231     1.04000
O208        O  0.73566661  0.58678688  0.58057194    -0.83900
O209        O  0.71354232  0.52524859  0.62543986    -0.81000
C210        C  0.71380246  0.50307710  0.65096681     0.99600
O211        O  0.74300910  0.50652785  0.66369942    -0.81000
O212        O  0.77491744  0.56666897  0.71206509    -0.83600
C213        C  0.79046041  0.59871144  0.72309885     1.04000
O214        O  0.80762597  0.62268857  0.69562682    -0.76400
O215        O  0.75707044  0.61813969  0.63831933    -0.76600
C216        C  0.73543718  0.60804556  0.60788361     1.04000
Cr217      Cr  0.75288964  0.55168712  0.58566550     1.93700
Cr218      Cr  0.79192045  0.54934409  0.66497972     1.93200
Cr219      Cr  0.80325566  0.62055569  0.63135694     1.39100
O220        O  0.78279558  0.57384311  0.62740302    -1.21700
O221        O  0.43491175  0.22373440  0.20535902    -0.83900
O222        O  0.49548499  0.26045860  0.25310859    -0.81000
C223        C  0.49702342  0.28950669  0.26288311     0.99500
O224        O  0.47374242  0.28927744  0.28680559    -0.81000
O225        O  0.41160785  0.26625360  0.33034327    -0.83600
C226        C  0.38862242  0.26225299  0.30283875     1.04100
O227        O  0.37812794  0.23765067  0.27590817    -0.76400
O228        O  0.37935172  0.18757201  0.22261426    -0.76600
C229        C  0.40279809  0.20565541  0.19489479     1.04000
O230        O  0.41822242  0.15799923  0.24697937    -0.83900
O231        O  0.47535840  0.19618460  0.30024863    -0.81000
C232        C  0.49493608  0.21828687  0.32778849     0.99600
O233        O  0.49083095  0.24442951  0.33673444    -0.81000
O234        O  0.42573481  0.21667382  0.37512050    -0.83600
C235        C  0.39274791  0.20119629  0.38108670     1.04000
O236        O  0.37201657  0.19583869  0.35003633    -0.76400
O237        O  0.37945581  0.14867286  0.29689037    -0.76600
C238        C  0.39261435  0.13664878  0.27047994     1.04000
Cr239      Cr  0.45393539  0.21017023  0.25414496     1.93700
Cr240      Cr  0.44878244  0.25155989  0.32930226     1.93200
Cr241      Cr  0.38084938  0.19427602  0.28666315     1.39100
O242        O  0.42781894  0.21864896  0.29005535    -1.21700
O243        O  0.42187524  0.21654019  0.69636711    -0.83900
O244        O  0.48753652  0.25420781  0.73292981    -0.81000
C245        C  0.49089689  0.28419113  0.74151443     0.99500
O246        O  0.47128893  0.28656545  0.76915201    -0.81000
O247        O  0.41683322  0.26873684  0.82536621    -0.83600
C248        C  0.39210053  0.26524260  0.80113107     1.04100
O249        O  0.37810327  0.23941034  0.77588169    -0.76400
O250        O  0.36880814  0.18432736  0.72395235    -0.76600
C251        C  0.38867774  0.19964201  0.69222805     1.04000
O252        O  0.40883493  0.15332656  0.74183630    -0.83900
O253        O  0.47247440  0.19328608  0.78385764    -0.81000
C254        C  0.49591138  0.21735247  0.80668463     0.99600
O255        O  0.49406658  0.24479228  0.81531723    -0.81000
O256        O  0.43500319  0.22068674  0.86615747    -0.83600
C257        C  0.40309935  0.20684491  0.87769841     1.04000
O258        O  0.37907155  0.20104426  0.85070767    -0.76400
O259        O  0.37616090  0.14896129  0.79718345    -0.76600
C260        C  0.38585832  0.13454330  0.76957871     1.04000
Cr261      Cr  0.44604466  0.20513125  0.74171255     1.93700
Cr262      Cr  0.45225380  0.25246997  0.81642573     1.93200
Cr263      Cr  0.37901096  0.19511013  0.78665847     1.39100
O264        O  0.42572377  0.21730626  0.78172029    -1.21700
C265        C  0.35259290  0.15853101  0.58565403     0.14100
C266        C  0.36145118  0.18866690  0.56056118     0.01100
C267        C  0.37360992  0.22158963  0.58072032     0.16000
C268        C  0.38013605  0.22487749  0.62461671     0.25500
C269        C  0.37378783  0.19515939  0.64905117    -0.40900
C270        C  0.35856284  0.16173391  0.62957919     0.32500
C271        C  0.36495062  0.18711426  0.51369448     0.01100
F272        F  0.38206319  0.25108721  0.55740514    -0.13200
F273        F  0.35268266  0.13275401  0.65241470    -0.13700
C274        C  0.34553777  0.19576128  0.48506071     0.16000
C275        C  0.35255976  0.19784121  0.44112960     0.25500
C276        C  0.37952313  0.19188108  0.42542893    -0.40800
C277        C  0.39776542  0.18187448  0.45414050     0.32400
C278        C  0.39054060  0.17948598  0.49761934     0.14100
F279        F  0.32056366  0.20313060  0.49973702    -0.13200
F280        F  0.42366922  0.17557773  0.44020148    -0.13700
F281        F  0.33473853  0.20800343  0.41442191    -0.16000
F282        F  0.41017227  0.17173162  0.52447725    -0.14500
F283        F  0.34059334  0.12640933  0.56706006    -0.14500
F284        F  0.39441132  0.25737824  0.64292292    -0.16000
C285        C  0.40675142  0.23302374  0.08002435     0.14100
C286        C  0.38690081  0.20003823  0.05992912     0.01100
C287        C  0.36920351  0.16916446  0.08490940     0.16000
C288        C  0.37226918  0.17114197  0.12935396     0.25500
C289        C  0.39368448  0.20400782  0.14932646    -0.40900
C290        C  0.41035429  0.23496677  0.12427708     0.32500
C291        C  0.38734338  0.19785676  0.01292986     0.01100
F292        F  0.34991862  0.13702018  0.06609340    -0.13200
F293        F  0.43094643  0.26707616  0.14268563    -0.13700
C294        C  0.40773267  0.18505681  0.99322050     0.16000
C295        C  0.41171098  0.18665543  0.94897266     0.25500
C296        C  0.39475971  0.20042182  0.92357254    -0.40800
C297        C  0.37324785  0.21199064  0.94322249     0.32400
C298        C  0.36989858  0.21107213  0.98761272     0.14100
F299        F  0.42518255  0.17256950  0.01705704    -0.13200
F300        F  0.35743943  0.22640831  0.91967343    -0.13700
F301        F  0.43272349  0.17539384  0.93093248    -0.16000
F302        F  0.35049114  0.22404669  0.00602381    -0.14500
F303        F  0.42417860  0.26319756  0.05656241    -0.14500
F304        F  0.35639492  0.14071932  0.15256135    -0.16000
C305        C  0.57258790  0.34524218  0.67706354     0.14100
C306        C  0.58153509  0.37833254  0.69437040     0.01100
C307        C  0.55891573  0.38092601  0.72401383     0.16000
C308        C  0.52838033  0.35052832  0.73776949     0.25500
C309        C  0.52003606  0.31683154  0.72211552    -0.40900
C310        C  0.54199707  0.31470852  0.69061182     0.32500
C311        C  0.61524918  0.41006286  0.68300956     0.01100
F312        F  0.56735124  0.41280665  0.74118436    -0.13200
F313        F  0.53448351  0.28306443  0.67355151    -0.13700
C314        C  0.61526130  0.43856845  0.66221788     0.16000
C315        C  0.64722346  0.46911200  0.65253167     0.25500
C316        C  0.67986047  0.47165223  0.66365801    -0.40800
C317        C  0.67957208  0.44284918  0.68476479     0.32400
C318        C  0.64750320  0.41233734  0.69426419     0.14100
F319        F  0.58421259  0.43655217  0.65075130    -0.13200
F320        F  0.71022646  0.44375292  0.69562627    -0.13700
F321        F  0.64603251  0.49601025  0.63203390    -0.16000
F322        F  0.64788004  0.38506843  0.71492090    -0.14500
F323        F  0.59384492  0.34250083  0.64749537    -0.14500
F324        F  0.50798566  0.35415376  0.76779477    -0.16000
C325        C  0.80346039  0.64438884  0.93101600     0.14100
C326        C  0.80938915  0.62214713  0.90394114     0.01100
C327        C  0.82010340  0.59930491  0.92174764     0.16000
C328        C  0.82136353  0.59601751  0.96573207     0.25500
C329        C  0.81260668  0.61600432  0.99306432    -0.40900
C330        C  0.80522706  0.64146414  0.97538452     0.32500
C331        C  0.80054971  0.61894038  0.85790537     0.01100
F332        F  0.82744953  0.57857974  0.89633666    -0.13200
F333        F  0.79660871  0.66118626  0.00088339    -0.13700
C334        C  0.81869785  0.64731424  0.82930921     0.16000
C335        C  0.81381343  0.64159313  0.78521126     0.25500
C336        C  0.79074839  0.60729898  0.76910706    -0.40800
C337        C  0.77030456  0.57987793  0.79832393     0.32400
C338        C  0.77519098  0.58569531  0.84197501     0.14100
F339        F  0.84255962  0.68003085  0.84388858    -0.13200
F340        F  0.74637373  0.54675378  0.78488909    -0.13700
F341        F  0.83293511  0.66923703  0.75845719    -0.16000
F342        F  0.75593051  0.55821750  0.86895119    -0.14500
F343        F  0.79338103  0.66693228  0.91472126    -0.14500
F344        F  0.82941250  0.57184645  0.98169056    -0.16000
C345        C  0.83819078  0.62436347  0.42566598     0.14100
C346        C  0.81489884  0.63314481  0.40499132     0.01100
C347        C  0.79156437  0.63946763  0.42952099     0.16000
C348        C  0.78984479  0.63472202  0.47361993     0.25500
C349        C  0.81130704  0.62342053  0.49377689    -0.40900
C350        C  0.83613023  0.61919464  0.46974220     0.32500
C351        C  0.81098544  0.63006816  0.35810538     0.01100
F352        F  0.76884030  0.64801658  0.41038569    -0.13200
F353        F  0.85700095  0.60818702  0.48873962    -0.13700
C354        C  0.77854826  0.60424655  0.34071504     0.16000
C355        C  0.77513872  0.59802128  0.29705164     0.25500
C356        C  0.80413883  0.61739361  0.26961606    -0.40800
C357        C  0.83634600  0.64419209  0.28675827     0.32400
C358        C  0.83975160  0.65038077  0.33074386     0.14100
F359        F  0.75059547  0.58351086  0.36637897    -0.13200
F360        F  0.86515931  0.66274447  0.26142838    -0.13700
F361        F  0.74361410  0.57209118  0.28172295    -0.16000
F362        F  0.87136926  0.67549210  0.34677263    -0.14500
F363        F  0.86085170  0.61789517  0.40284561    -0.14500
F364        F  0.76485115  0.63783606  0.49606674    -0.16000
C365        C  0.61830178  0.44246166  0.17638065     0.14100
C366        C  0.61861108  0.42312114  0.21193528     0.01100
C367        C  0.65037829  0.43449826  0.23421270     0.16000
C368        C  0.68194919  0.46366334  0.21971363     0.25500
C369        C  0.68223369  0.48220022  0.18270812    -0.40900
C370        C  0.64974372  0.47189521  0.16199103     0.32500
C371        C  0.58653572  0.38947841  0.22386094     0.01100
F372        F  0.65101820  0.41647299  0.26917256    -0.13200
F373        F  0.64853269  0.48914187  0.12657793    -0.13700
C374        C  0.57779946  0.35829368  0.20149793     0.16000
C375        C  0.54858727  0.32584086  0.21375480     0.25500
C376        C  0.52725013  0.32406954  0.24845426    -0.40800
C377        C  0.53598766  0.35570515  0.27047376     0.32400
C378        C  0.56544893  0.38801528  0.25834438     0.14100
F379        F  0.59812089  0.35924896  0.16819623    -0.13200
F380        F  0.51678270  0.35532822  0.30471344    -0.13700
F381        F  0.54128138  0.29621778  0.19160458    -0.16000
F382        F  0.57362314  0.41786950  0.28053421    -0.14500
F383        F  0.58763127  0.43219827  0.15492580    -0.14500
F384        F  0.71232094  0.47333235  0.24157554    -0.16000
C385        C  0.81678294  0.43906591  0.08348550     0.14100
C386        C  0.79114864  0.41540753  0.05499602     0.01100
C387        C  0.76523761  0.42279870  0.03961568     0.16000
C388        C  0.76424963  0.45285381  0.05338181     0.25500
C389        C  0.78911243  0.47614380  0.08326666    -0.40900
C390        C  0.81581844  0.46911775  0.09758864     0.32500
C391        C  0.79054417  0.38240375  0.04193587     0.01100
F392        F  0.74070967  0.40069175  0.01120699    -0.13200
F393        F  0.84057380  0.49073899  0.12608797    -0.13700
C394        C  0.76207462  0.34931232  0.05401694     0.16000
C395        C  0.75953408  0.31791022  0.03883877     0.25500
C396        C  0.78535968  0.31896229  0.01066347    -0.40800
C397        C  0.81490376  0.35235098  0.00044514     0.32400
C398        C  0.81739785  0.38370787  0.01596306     0.14100
F399        F  0.73644406  0.34746705  0.08034376    -0.13200
F400        F  0.84109921  0.35492212  0.97460379    -0.13700
F401        F  0.73139791  0.28656687  0.05136377    -0.16000
F402        F  0.84540252  0.41546308  0.00431850    -0.14500
F403        F  0.84208871  0.43241946  0.09875657    -0.14500
F404        F  0.73857147  0.45875366  0.03766876    -0.16000
C405        C  0.58934423  0.24446559  0.84142454     0.14100
C406        C  0.58642323  0.21165578  0.85177253     0.01100
C407        C  0.55352471  0.18041364  0.84656085     0.16000
C408        C  0.52401991  0.18202132  0.83150394     0.25500
C409        C  0.52689777  0.21494179  0.82169275    -0.40900
C410        C  0.55998138  0.24610207  0.82643581     0.32500
C411        C  0.61764842  0.21039745  0.86867182     0.01100
F412        F  0.55004784  0.14831197  0.85577491    -0.13200
F413        F  0.56415509  0.27826787  0.81581527    -0.13700
C414        C  0.61604954  0.19515845  0.90863951     0.16000
C415        C  0.64614540  0.19596377  0.92575337     0.25500
C416        C  0.67859723  0.21249950  0.90343841    -0.40800
C417        C  0.68001558  0.22734205  0.86320567     0.32400
C418        C  0.64978064  0.22603841  0.84586894     0.14100
F419        F  0.58572832  0.18087976  0.93199047    -0.13200
F420        F  0.71068900  0.24304166  0.84050217    -0.13700
F421        F  0.64392556  0.18215034  0.96512195    -0.16000
F422        F  0.65190393  0.24018015  0.80673133    -0.14500
F423        F  0.62057087  0.27514042  0.84665550    -0.14500
F424        F  0.49248301  0.15149915  0.82751729    -0.16000
C425        C  0.83505618  0.19423852  0.76172636     0.14100
C426        C  0.80601580  0.18311795  0.73410176     0.01100
C427        C  0.77272822  0.17442909  0.75113233     0.16000
C428        C  0.76893573  0.17858524  0.79455444     0.25500
C429        C  0.79823291  0.19101692  0.82200657    -0.40900
C430        C  0.83115118  0.19790650  0.80540174     0.32500
C431        C  0.81083479  0.18461166  0.68721496     0.01100
F432        F  0.74428484  0.16401111  0.72523369    -0.13200
F433        F  0.86010943  0.21063762  0.83087854    -0.13700
C434        C  0.79101661  0.15429776  0.66201879     0.16000
C435        C  0.79019324  0.15738387  0.61768453     0.25500
C436        C  0.80868277  0.19090649  0.59809001    -0.40800
C437        C  0.83039238  0.22074696  0.62297244     0.32400
C438        C  0.83170496  0.21760905  0.66711113     0.14100
F439        F  0.77086355  0.12207033  0.68058684    -0.13200
F440        F  0.84864188  0.25334670  0.60467805    -0.13700
F441        F  0.76870986  0.12819279  0.59440115    -0.16000
F442        F  0.85098550  0.24735618  0.69053505    -0.14500
F443        F  0.86746851  0.20275097  0.74611963    -0.14500
F444        F  0.73675157  0.17141161  0.80963882    -0.16000
C445        C  0.80963578  0.23100590  0.16704344     0.14100
C446        C  0.80349178  0.19949343  0.18690874     0.01100
C447        C  0.80002454  0.17124077  0.16175280     0.16000
C448        C  0.79984387  0.17350382  0.11722199     0.25500
C449        C  0.80295347  0.20402699  0.09749090    -0.40900
C450        C  0.80946678  0.23330604  0.12286675     0.32500
C451        C  0.79766455  0.19556123  0.23349800     0.01100
F452        F  0.79430749  0.14060832  0.18028757    -0.13200
F453        F  0.81406750  0.26376253  0.10487533    -0.13700
C454        C  0.76982042  0.19880115  0.25134707     0.16000
C455        C  0.76589696  0.19884403  0.29535380     0.25500
C456        C  0.78985109  0.19567076  0.32276300    -0.40800
C457        C  0.81678829  0.19072944  0.30472583     0.32400
C458        C  0.82060090  0.19065669  0.26042806     0.14100
F459        F  0.74675917  0.20275652  0.22597321    -0.13200
F460        F  0.84073709  0.18806091  0.32978472    -0.13700
F461        F  0.73906464  0.20297742  0.31101382    -0.16000
F462        F  0.84784024  0.18771691  0.24386482    -0.14500
F463        F  0.81426041  0.25913364  0.19059578    -0.14500
F464        F  0.79376635  0.14488644  0.09371425    -0.16000
C465        C  0.78189372  0.35370801  0.57359610     0.14100
C466        C  0.79592134  0.38320632  0.54618184     0.01100
C467        C  0.80914923  0.38102195  0.50639172     0.16000
C468        C  0.80775014  0.34959536  0.49362187     0.25500
C469        C  0.79247019  0.31939676  0.52021732    -0.40900
C470        C  0.77990502  0.32189945  0.56060447     0.32500
C471        C  0.79495209  0.41566954  0.55772993     0.01100
F472        F  0.82270510  0.40921796  0.47943527    -0.13200
F473        F  0.76554748  0.29356262  0.58734749    -0.13700
C474        C  0.81919053  0.43991846  0.58692459     0.16000
C475        C  0.81818446  0.47069784  0.59749921     0.25500
C476        C  0.79253933  0.47761758  0.57923958    -0.40800
C477        C  0.76872152  0.45332604  0.54923237     0.32400
C478        C  0.77003395  0.42278206  0.53861897     0.14100
F479        F  0.84388743  0.43375579  0.60517919    -0.13200
F480        F  0.74362619  0.45863601  0.53050276    -0.13700
F481        F  0.84191526  0.49324115  0.62628345    -0.16000
F482        F  0.74642766  0.39965114  0.51014985    -0.14500
F483        F  0.76906591  0.35540142  0.61232946    -0.14500
F484        F  0.81963721  0.34822045  0.45416069    -0.16000
C485        C  0.55914229  0.18515055  0.35364845     0.14100
C486        C  0.58412848  0.21271160  0.37916982     0.01100
C487        C  0.57865362  0.24092602  0.38982367     0.16000
C488        C  0.54916075  0.24216098  0.37435963     0.25500
C489        C  0.52440105  0.21511806  0.34757306    -0.40900
C490        C  0.52957130  0.18627550  0.33795805     0.32500
C491        C  0.61664997  0.21291263  0.39355691     0.01100
F492        F  0.60218045  0.26757318  0.41508804    -0.13200
F493        F  0.50651684  0.15941564  0.31260730    -0.13700
C494        C  0.65006794  0.24020675  0.38038174     0.16000
C495        C  0.68103420  0.24164763  0.39520633     0.25500
C496        C  0.67928067  0.21572630  0.42378220    -0.40800
C497        C  0.64553960  0.18783635  0.43611583     0.32400
C498        C  0.61458555  0.18651363  0.42109950     0.14100
F499        F  0.65269698  0.26552928  0.35288413    -0.13200
F500        F  0.64230092  0.16207677  0.46327687    -0.13700
F501        F  0.71269937  0.26866920  0.38154629    -0.16000
F502        F  0.58253359  0.15996017  0.43443210    -0.14500
F503        F  0.56409420  0.15775383  0.34262798    -0.14500
F504        F  0.54551957  0.27043003  0.38492683    -0.16000
C505        C  0.66563921  0.62683282  0.56207841     0.14100
C506        C  0.67164172  0.65665490  0.58557226     0.01100
C507        C  0.69715477  0.66928186  0.61791991     0.16000
C508        C  0.71705770  0.65281392  0.62619470     0.25500
C509        C  0.71183375  0.62327697  0.60206147    -0.40900
C510        C  0.68540259  0.61012300  0.57032595     0.32500
C511        C  0.65130936  0.67478148  0.57682122     0.01100
F512        F  0.70347015  0.69830579  0.64078094    -0.13200
F513        F  0.67866964  0.58117947  0.54705308    -0.13700
C514        C  0.62823511  0.67489839  0.60777926     0.16000
C515        C  0.61123210  0.69454751  0.60158493     0.25500
C516        C  0.61715915  0.71474376  0.56415002    -0.40800
C517        C  0.63960386  0.71366571  0.53251769     0.32400
C518        C  0.65647369  0.69375799  0.53884608     0.14100
F519        F  0.62266639  0.65636455  0.64450021    -0.13200
F520        F  0.64566655  0.73219447  0.49571201    -0.13700
F521        F  0.59002101  0.69472735  0.63314375    -0.16000
F522        F  0.67891001  0.69405769  0.50860830    -0.14500
F523        F  0.64048175  0.61381659  0.53128142    -0.14500
F524        F  0.74213679  0.66660473  0.65704311    -0.16000
C525        C  0.67356682  0.04107928  0.53081725     0.14100
C526        C  0.67026719  0.01813387  0.49764294     0.01100
C527        C  0.68569252  0.03267948  0.45801505     0.16000
C528        C  0.70515436  0.06961944  0.45217228     0.25500
C529        C  0.70932772  0.09282200  0.48582287    -0.40900
C530        C  0.69265400  0.07791750  0.52502911     0.32500
C531        C  0.65191248  0.97915580  0.50510055     0.01100
F532        F  0.68295687  0.01109388  0.42537682    -0.13200
F533        F  0.69576821  0.09889814  0.55849151    -0.13700
C534        C  0.62108537  0.95610711  0.48254579     0.16000
C535        C  0.60405240  0.91936460  0.48955108     0.25500
C536        C  0.61776889  0.90475082  0.51910550    -0.40800
C537        C  0.64831901  0.92820019  0.54233175     0.32400
C538        C  0.66515873  0.96489060  0.53530202     0.14100
F539        F  0.60721936  0.96924905  0.45392963    -0.13200
F540        F  0.66252552  0.91576646  0.57141142    -0.13700
F541        F  0.57414581  0.89821189  0.46720970    -0.16000
F542        F  0.69509706  0.98655110  0.55731543    -0.14500
F543        F  0.65844768  0.02770895  0.56919520    -0.14500
F544        F  0.72020425  0.08256051  0.41363207    -0.16000
C545        C  0.67949577  0.71652826  0.04296883     0.14100
C546        C  0.67139528  0.69252204  0.07672510     0.01100
C547        C  0.64199210  0.68414557  0.10269304     0.16000
C548        C  0.62129685  0.69996630  0.09567355     0.25500
C549        C  0.62958972  0.72462049  0.06233168    -0.40900
C550        C  0.65879384  0.73237247  0.03570182     0.32500
C551        C  0.69285334  0.67532233  0.08454433     0.01100
F552        F  0.63312963  0.66029364  0.13484239    -0.13200
F553        F  0.66776848  0.75562656  0.00284747    -0.13700
C554        C  0.70906794  0.67863306  0.12417468     0.16000
C555        C  0.72669826  0.65982625  0.13288393     0.25500
C556        C  0.72840958  0.63732861  0.10196437    -0.40800
C557        C  0.71318792  0.63516315  0.06172947     0.32400
C558        C  0.69560550  0.65396240  0.05317647     0.14100
F559        F  0.70785298  0.70020678  0.15444949    -0.13200
F560        F  0.71569948  0.61524850  0.03020983    -0.13700
F561        F  0.74160099  0.66330571  0.17174736    -0.16000
F562        F  0.68049297  0.65061212  0.01447398    -0.14500
F563        F  0.70798480  0.72527050  0.01758620    -0.14500
F564        F  0.59354695  0.69149421  0.12219373    -0.16000
C565        C  0.69399827  0.03477286  0.95695260     0.14100
C566        C  0.67318556  0.01999568  0.99357243     0.01100
C567        C  0.67092236  0.04275142  0.02343822     0.16000
C568        C  0.68965185  0.07961507  0.01733960     0.25500
C569        C  0.71147218  0.09473795  0.98129479    -0.40900
C570        C  0.71296295  0.07167198  0.95082548     0.32500
C571        C  0.65440455  0.98096637  0.00120851     0.01100
F572        F  0.65050767  0.02917947  0.05872512    -0.13200
F573        F  0.73299355  0.08471724  0.91516142    -0.13700
C574        C  0.66264721  0.96698927  0.03689769     0.16000
C575        C  0.64522055  0.93027470  0.04419218     0.25500
C576        C  0.61896243  0.90647921  0.01583862    -0.40800
C577        C  0.61060780  0.92076766  0.98020737     0.32400
C578        C  0.62821694  0.95751942  0.97298835     0.14100
F579        F  0.68839516  0.98895319  0.06422523    -0.13200
F580        F  0.58575380  0.89925568  0.95174139    -0.13700
F581        F  0.65461304  0.91816775  0.07880528    -0.16000
F582        F  0.61949244  0.97028041  0.93842648    -0.14500
F583        F  0.69687255  0.01347647  0.92763142    -0.14500
F584        F  0.68703913  0.10044532  0.04753799    -0.16000
C585        C  0.63586001  0.83909481  0.83964890     0.14100
C586        C  0.62099908  0.80819277  0.81472975     0.01100
C587        C  0.60361980  0.77488326  0.83486077     0.16000
C588        C  0.59882680  0.77250651  0.87892759     0.25500
C589        C  0.61188326  0.80338670  0.90366291    -0.40900
C590        C  0.63161113  0.83671641  0.88392448     0.32500
C591        C  0.61879649  0.81034810  0.76793874     0.01100
F592        F  0.58885231  0.74465745  0.81149739    -0.13200
F593        F  0.64392210  0.86694723  0.90697229    -0.13700
C594        C  0.63520152  0.79719655  0.74077392     0.16000
C595        C  0.62898419  0.79517765  0.69685433     0.25500
C596        C  0.60573039  0.80568278  0.67969251    -0.40800
C597        C  0.59006044  0.81958856  0.70686224     0.32400
C598        C  0.59678681  0.82219563  0.75050747     0.14100
F599        F  0.65619271  0.78517295  0.75700476    -0.13200
F600        F  0.56736157  0.82971025  0.69122120    -0.13700
F601        F  0.64358579  0.78055921  0.67158594    -0.16000
F602        F  0.58008558  0.83434297  0.77618421    -0.14500
F603        F  0.65275726  0.87154175  0.82081579    -0.14500
F604        F  0.57982542  0.74000785  0.89730611    -0.16000
C605        C  0.64185530  0.81469390  0.24099387     0.14100
C606        C  0.61362995  0.80641421  0.26915999     0.01100
C607        C  0.58096726  0.79984305  0.25275938     0.16000
C608        C  0.57571171  0.79949275  0.20909054     0.25500
C609        C  0.60303594  0.80540460  0.18021106    -0.40900
C610        C  0.63661291  0.81412222  0.19674339     0.32500
C611        C  0.61652591  0.80287151  0.31569000     0.01100
F612        F  0.55359904  0.79286694  0.27934455    -0.13200
F613        F  0.66382530  0.82042944  0.17030244    -0.13700
C614        C  0.63605261  0.83292606  0.34126205     0.16000
C615        C  0.63116563  0.83056962  0.38553378     0.25500
C616        C  0.60636015  0.79819476  0.40456097    -0.40800
C617        C  0.58909590  0.76765617  0.37920095     0.32400
C618        C  0.59436345  0.76993366  0.33525357     0.14100
F619        F  0.65750993  0.86503851  0.32311532    -0.13200
F620        F  0.56579888  0.73583471  0.39680949    -0.13700
F621        F  0.64813023  0.86052972  0.40920740    -0.16000
F622        F  0.57591907  0.74032423  0.31130428    -0.14500
F623        F  0.67390350  0.82174224  0.25623664    -0.14500
F624        F  0.54320720  0.79227389  0.19525904    -0.16000
C625        C  0.03813898  0.36547377  0.94142196     0.14100
C626        C  0.01483446  0.33593119  0.91719741     0.01100
C627        C  0.02865661  0.32384891  0.88517673     0.16000
C628        C  0.06528309  0.34103038  0.87743598     0.25500
C629        C  0.08901209  0.37094923  0.90155855    -0.40900
C630        C  0.07476454  0.38291146  0.93368371     0.32500
C631        C  0.97600087  0.31810400  0.92473372     0.01100
F632        F  0.00660504  0.29495295  0.86176994    -0.13200
F633        F  0.09616127  0.41140020  0.95800563    -0.13700
C634        C  0.95371691  0.32033543  0.89419819     0.16000
C635        C  0.91695851  0.30299036  0.90054366     0.25500
C636        C  0.90154861  0.28254407  0.93754938    -0.40800
C637        C  0.92422252  0.28105707  0.96859426     0.32400
C638        C  0.96104887  0.29871580  0.96220610     0.14100
F639        F  0.96765833  0.33935165  0.85800522    -0.13200
F640        F  0.91086075  0.26225842  0.00506440    -0.13700
F641        F  0.89650702  0.30555503  0.86974539    -0.16000
F642        F  0.98209269  0.29609640  0.99214659    -0.14500
F643        F  0.02529149  0.37773955  0.97235105    -0.14500
F644        F  0.07733705  0.32806606  0.84640371    -0.16000
C645        C  0.31961726  0.36922454  0.79519662     0.14100
C646        C  0.32538683  0.35007883  0.82703318     0.01100
C647        C  0.30965614  0.34633088  0.86717134     0.16000
C648        C  0.28765147  0.36069687  0.87499647     0.25500
C649        C  0.28108714  0.37921127  0.84275570    -0.40900
C650        C  0.29764017  0.38350176  0.80280101     0.32500
C651        C  0.34524782  0.33146192  0.81733105     0.01100
F652        F  0.31452024  0.32753229  0.89832749    -0.13200
F653        F  0.29165554  0.40043319  0.77029537    -0.13700
C654        C  0.37534934  0.33819088  0.84089351     0.16000
C655        C  0.39166494  0.31778376  0.83446071     0.25500
C656        C  0.37795329  0.29004273  0.80435819    -0.40800
C657        C  0.34910248  0.28503343  0.77896062     0.32400
C658        C  0.33290004  0.30541919  0.78555145     0.14100
F659        F  0.38873191  0.36434654  0.87046446    -0.13200
F660        F  0.33569363  0.25969146  0.74841272    -0.13700
F661        F  0.42039023  0.32482161  0.85840799    -0.16000
F662        F  0.30401115  0.29858035  0.76204535    -0.14500
F663        F  0.33492372  0.37366219  0.75635067    -0.14500
F664        F  0.27256078  0.35613381  0.91397179    -0.16000
C665        C  0.42271661  0.65056179  0.93599457     0.14100
C666        C  0.41282033  0.61744328  0.95449965     0.01100
C667        C  0.43433937  0.61566223  0.98661459     0.16000
C668        C  0.46408644  0.64670333  0.00151899     0.25500
C669        C  0.47286112  0.68030039  0.98467541    -0.40900
C670        C  0.45220846  0.68156854  0.95090321     0.32500
C671        C  0.37872444  0.58556246  0.94209878     0.01100
F672        F  0.42557710  0.58405606  0.00504397    -0.13200
F673        F  0.46015646  0.71294277  0.93247072    -0.13700
C674        C  0.37772367  0.55517593  0.92513486     0.16000
C675        C  0.34548243  0.52627338  0.91146064     0.25500
C676        C  0.31349269  0.52711989  0.91463853    -0.40800
C677        C  0.31459411  0.55721043  0.93294407     0.32400
C678        C  0.34674821  0.58595737  0.94642962     0.14100
F679        F  0.40809806  0.55386666  0.92063861    -0.13200
F680        F  0.28468591  0.55946023  0.93679396    -0.13700
F681        F  0.34569810  0.49753387  0.89501295    -0.16000
F682        F  0.34666294  0.61446903  0.96378432    -0.14500
F683        F  0.40334242  0.65293298  0.90365819    -0.14500
F684        F  0.48324251  0.64386208  0.03376716    -0.16000
C685        C  0.95206225  0.32471181  0.39789562     0.14100
C686        C  0.97489286  0.31666876  0.42063588     0.01100
C687        C  0.96064463  0.28922413  0.45085096     0.16000
C688        C  0.92407122  0.26993886  0.45825245     0.25500
C689        C  0.90082482  0.27773841  0.43544048    -0.40900
C690        C  0.91543092  0.30557119  0.40523661     0.32500
C691        C  0.01366618  0.33696549  0.41322142     0.01100
F692        F  0.98222367  0.28060490  0.47269142    -0.13200
F693        F  0.89440407  0.31435234  0.38246311    -0.13700
C694        C  0.03657994  0.35687395  0.44625047     0.16000
C695        C  0.07332810  0.37458939  0.44030573     0.25500
C696        C  0.08797326  0.37254229  0.40113720    -0.40800
C697        C  0.06479822  0.35314792  0.36770877     0.32400
C698        C  0.02799028  0.33562112  0.37373910     0.14100
F699        F  0.02326073  0.35893509  0.48449095    -0.13200
F700        F  0.07767257  0.35096208  0.32921068    -0.13700
F701        F  0.09448355  0.39273584  0.47353502    -0.16000
F702        F  0.00630974  0.31639601  0.34138256    -0.14500
F703        F  0.96534639  0.35144610  0.36887044    -0.14500
F704        F  0.91157175  0.24339066  0.48748266    -0.16000
C705        C  0.32727396  0.37647889  0.30954608     0.14100
C706        C  0.31917253  0.34440643  0.32957481     0.01100
C707        C  0.29180702  0.32992138  0.35992528     0.16000
C708        C  0.27177340  0.34623904  0.36875408     0.25500
C709        C  0.27857875  0.37756078  0.34724199    -0.40900
C710        C  0.30724921  0.39293610  0.31825662     0.32500
C711        C  0.33816871  0.32511160  0.31815359     0.01100
F712        F  0.28425872  0.29960155  0.38088264    -0.13200
F713        F  0.31570907  0.42365920  0.29772989    -0.13700
C714        C  0.37487891  0.34039042  0.32483258     0.16000
C715        C  0.39171105  0.32042657  0.31821230     0.25500
C716        C  0.37215109  0.28496470  0.30445425    -0.40800
C717        C  0.33587265  0.27052619  0.29524280     0.32400
C718        C  0.31905228  0.29034387  0.30226605     0.14100
F719        F  0.39415001  0.37413543  0.33940505    -0.13200
F720        F  0.31617550  0.23654111  0.28155337    -0.13700
F721        F  0.42710290  0.33568153  0.32547722    -0.16000
F722        F  0.28378121  0.27530544  0.29429988    -0.14500
F723        F  0.35378770  0.39123510  0.28035076    -0.14500
F724        F  0.24508414  0.33062754  0.39763456    -0.16000
C725        C  0.17042569  0.39458930  0.66336911     0.14100
C726        C  0.18144095  0.37169950  0.64692758     0.01100
C727        C  0.19064168  0.35242826  0.67496154     0.16000
C728        C  0.19054360  0.35744981  0.71902971     0.25500
C729        C  0.18188301  0.38235805  0.73536396    -0.40900
C730        C  0.17068227  0.39993537  0.70711681     0.32500
C731        C  0.18719922  0.37182820  0.60062073     0.01100
F732        F  0.20156306  0.33031733  0.65955432    -0.13200
F733        F  0.16165199  0.42371886  0.72178339    -0.13700
C734        C  0.22009910  0.39691683  0.58342731     0.16000
C735        C  0.22394478  0.40320566  0.53963850     0.25500
C736        C  0.19497528  0.38420390  0.51216822    -0.40800
C737        C  0.16263668  0.35739829  0.52922517     0.32400
C738        C  0.15873690  0.35147602  0.57324265     0.14100
F739        F  0.24784718  0.41708405  0.60943757    -0.13200
F740        F  0.13392114  0.33919044  0.50383361    -0.13700
F741        F  0.25556521  0.42912498  0.52428007    -0.16000
F742        F  0.12659567  0.32750416  0.58941674    -0.14500
F743        F  0.16160441  0.41356073  0.63672046    -0.14500
F744        F  0.20180460  0.34028118  0.74530785    -0.16000
C745        C  0.21829738  0.41667227  0.08401544     0.14100
C746        C  0.18960545  0.38593218  0.10110276     0.01100
C747        C  0.16655425  0.35874723  0.07368213     0.16000
C748        C  0.17112211  0.36307312  0.02943493     0.25500
C749        C  0.19902001  0.39469860  0.01208796    -0.40900
C750        C  0.22315817  0.42096026  0.04012879     0.32500
C751        C  0.18317104  0.38373222  0.14747689     0.01100
F752        F  0.13860267  0.32885465  0.08973851    -0.13200
F753        F  0.25099642  0.45152797  0.02513650    -0.13700
C754        C  0.17257978  0.40618687  0.16638024     0.16000
C755        C  0.17233739  0.40907191  0.21055276     0.25500
C756        C  0.18283307  0.38962926  0.23667666    -0.40800
C757        C  0.19099151  0.36522048  0.21780401     0.32400
C758        C  0.19131105  0.36244161  0.17340734     0.14100
F759        F  0.16417462  0.42668240  0.14188862    -0.13200
F760        F  0.20169761  0.34643338  0.24203897    -0.13700
F761        F  0.16340858  0.43216288  0.22781538    -0.16000
F762        F  0.20208256  0.34095670  0.15568494    -0.14500
F763        F  0.24117203  0.44312038  0.11000106    -0.14500
F764        F  0.14700724  0.33729533  0.00376157    -0.16000
C765        C  0.34191496  0.57893895  0.46716193     0.14100
C766        C  0.37453084  0.58594764  0.45005008     0.01100
C767        C  0.37565310  0.56257795  0.42041576     0.16000
C768        C  0.34429373  0.53277555  0.40712654     0.25500
C769        C  0.31115069  0.52588459  0.42346003    -0.40900
C770        C  0.31048815  0.54912746  0.45420648     0.32500
C771        C  0.40729843  0.61814585  0.46276516     0.01100
F772        F  0.40712522  0.56913363  0.40360111    -0.13200
F773        F  0.27945403  0.54345419  0.47148330    -0.13700
C774        C  0.42904448  0.61638503  0.49431221     0.16000
C775        C  0.45881003  0.64734582  0.50859968     0.25500
C776        C  0.46726903  0.68071244  0.49141156    -0.40800
C777        C  0.44576347  0.68199413  0.45865881     0.32400
C778        C  0.41600631  0.65095732  0.44463077     0.14100
F779        F  0.42071925  0.58471751  0.51223074    -0.13200
F780        F  0.45311574  0.71328726  0.44046084    -0.13700
F781        F  0.47844375  0.64461951  0.54033723    -0.16000
F782        F  0.39528035  0.65292563  0.41372030    -0.14500
F783        F  0.34055656  0.60126150  0.49622196    -0.14500
F784        F  0.34649081  0.51128003  0.37754018    -0.16000
C785        C  0.28416968  0.96766226  0.72033949     0.14100
C786        C  0.31338455  0.98213289  0.74793236     0.01100
C787        C  0.32352754  0.95949081  0.76739976     0.16000
C788        C  0.30440485  0.92285089  0.75998129     0.25500
C789        C  0.27471897  0.90802785  0.73268086    -0.40900
C790        C  0.26506711  0.93109921  0.71265767     0.32500
C791        C  0.33295580  0.02083917  0.75652094     0.01100
F792        F  0.35147121  0.97280191  0.79452418    -0.13200
F793        F  0.23663807  0.91837570  0.68632282    -0.13700
C794        C  0.31552701  0.03715010  0.77554212     0.16000
C795        C  0.33315705  0.07394637  0.78130199     0.25500
C796        C  0.36854881  0.09527798  0.76767580    -0.40800
C797        C  0.38628003  0.07874363  0.74969929     0.32400
C798        C  0.36868187  0.04183816  0.74442979     0.14100
F799        F  0.28119333  0.01738413  0.78818466    -0.13200
F800        F  0.42063835  0.09830148  0.73706422    -0.13700
F801        F  0.31498932  0.08879420  0.79849206    -0.16000
F802        F  0.38617874  0.02669722  0.72619205    -0.14500
F803        F  0.27415219  0.98909110  0.70064699    -0.14500
F804        F  0.31494939  0.90194958  0.77990565    -0.16000
C805        C  0.95402937  0.62456091  0.67140767     0.14100
C806        C  0.97587736  0.66124330  0.66497443     0.01100
C807        C  0.96062529  0.68154058  0.65178450     0.16000
C808        C  0.92403385  0.66573954  0.64650160     0.25500
C809        C  0.90194353  0.62919626  0.65403403    -0.40900
C810        C  0.91728597  0.60863604  0.66604808     0.32500
C811        C  0.01435001  0.67904916  0.67380363     0.01100
F812        F  0.98125767  0.71690125  0.64439241    -0.13200
F813        F  0.89675440  0.57312569  0.67238248    -0.13700
C814        C  0.03655651  0.66967268  0.65181201     0.16000
C815        C  0.07333767  0.68890415  0.65792039     0.25500
C816        C  0.08853161  0.71804782  0.68599358    -0.40800
C817        C  0.06581183  0.72631153  0.70916357     0.32400
C818        C  0.02920952  0.70690420  0.70321965     0.14100
F819        F  0.02276863  0.64279921  0.62318307    -0.13200
F820        F  0.07887218  0.75395935  0.73669524    -0.13700
F821        F  0.09398449  0.67931601  0.63569619    -0.16000
F822        F  0.00814641  0.71572677  0.72586388    -0.14500
F823        F  0.96813848  0.60437136  0.68408887    -0.14500
F824        F  0.91014813  0.68654099  0.63557590    -0.16000
C825        C  0.17853795  0.56524418  0.82713670     0.14100
C826        C  0.20025583  0.58620867  0.79369735     0.01100
C827        C  0.22194388  0.57583324  0.77242114     0.16000
C828        C  0.22269055  0.54536972  0.78511924     0.25500
C829        C  0.20180523  0.52473606  0.81966623    -0.40900
C830        C  0.17925756  0.53478389  0.84008226     0.32500
C831        C  0.20140175  0.61968136  0.78190142     0.01100
F832        F  0.24271360  0.59551182  0.73950916    -0.13200
F833        F  0.15903888  0.51614273  0.87384836    -0.13700
C834        C  0.23169976  0.65231963  0.79082435     0.16000
C835        C  0.23374764  0.68412098  0.77809749     0.25500
C836        C  0.20549799  0.68388162  0.75572228    -0.40800
C837        C  0.17466374  0.65090679  0.74792585     0.32400
C838        C  0.17270577  0.61916816  0.76099060     0.14100
F839        F  0.25948911  0.65332931  0.81173097    -0.13200
F840        F  0.14649509  0.64915385  0.72712506    -0.13700
F841        F  0.26386076  0.71502214  0.78687298    -0.16000
F842        F  0.14315632  0.58779227  0.75213459    -0.14500
F843        F  0.15768689  0.57512092  0.84838278    -0.14500
F844        F  0.24426755  0.53643351  0.76384656    -0.16000
C845        C  0.37481533  0.81000413  0.67027688     0.14100
C846        C  0.37490168  0.79269558  0.63279479     0.01100
C847        C  0.34409996  0.77594212  0.60789919     0.16000
C848        C  0.31324901  0.77576112  0.62080958     0.25500
C849        C  0.31271082  0.79231109  0.65897477    -0.40900
C850        C  0.34399988  0.80985857  0.68332668     0.32500
C851        C  0.40670540  0.79097776  0.62024706     0.01100
F852        F  0.34392099  0.75955582  0.57115748    -0.13200
F853        F  0.34434331  0.82531288  0.72089611    -0.13700
C854        C  0.40616028  0.75849058  0.62166245     0.16000
C855        C  0.43554015  0.75623607  0.60800497     0.25500
C856        C  0.46603199  0.78656618  0.59221503    -0.40800
C857        C  0.46670132  0.81930768  0.59187004     0.32400
C858        C  0.43731290  0.82147652  0.60597398     0.14100
F859        F  0.37694771  0.72881935  0.63607782    -0.13200
F860        F  0.49572549  0.84926587  0.57776001    -0.13700
F861        F  0.43351328  0.72405014  0.60894750    -0.16000
F862        F  0.43832129  0.85317079  0.60466275    -0.14500
F863        F  0.40419638  0.82580554  0.69510628    -0.14500
F864        F  0.28388593  0.75929103  0.59602238    -0.16000
C865        C  0.32875365  0.96173831  0.26913458     0.14100
C866        C  0.32369092  0.98447636  0.24204591     0.01100
C867        C  0.30014850  0.97002639  0.20778612     0.16000
C868        C  0.28097777  0.93322120  0.20149335     0.25500
C869        C  0.28501704  0.91000411  0.22951418    -0.40900
C870        C  0.30986090  0.92495337  0.26286044     0.32500
C871        C  0.34225506  0.02320216  0.25026742     0.01100
F872        F  0.29488109  0.99156883  0.18113961    -0.13200
F873        F  0.31554715  0.90405569  0.29010358    -0.13700
C874        C  0.37041572  0.04677638  0.22420342     0.16000
C875        C  0.38751728  0.08344087  0.23150146     0.25500
C876        C  0.37649136  0.09741256  0.26494212    -0.40800
C877        C  0.34841090  0.07334928  0.29141850     0.32400
C878        C  0.33158994  0.03670654  0.28410896     0.14100
F879        F  0.38134292  0.03419996  0.19154099    -0.13200
F880        F  0.33675415  0.08511313  0.32419429    -0.13700
F881        F  0.41446661  0.10517008  0.20518845    -0.16000
F882        F  0.30420785  0.01433401  0.30954396    -0.14500
F883        F  0.35190437  0.97524452  0.30198900    -0.14500
F884        F  0.25791676  0.92045205  0.16846354    -0.16000
C885        C  0.04119657  0.66720222  0.17255159     0.14100
C886        C  0.01984699  0.68171055  0.18350413     0.01100
C887        C  0.03544359  0.71600205  0.20042426     0.16000
C888        C  0.07222484  0.73613722  0.20510634     0.25500
C889        C  0.09407926  0.72233195  0.19244755    -0.40900
C890        C  0.07808574  0.68736486  0.17684006     0.32500
C891        C  0.98152817  0.66205565  0.17464330     0.01100
F892        F  0.01501874  0.73025000  0.21152256    -0.13200
F893        F  0.09808871  0.67268098  0.16567980    -0.13700
C894        C  0.95788384  0.63614302  0.20297350     0.16000
C895        C  0.92140139  0.61843644  0.19495992     0.25500
C896        C  0.90797346  0.62651354  0.15831603    -0.40800
C897        C  0.93217807  0.65213507  0.12953617     0.32400
C898        C  0.96856422  0.66977919  0.13782224     0.14100
F899        F  0.97011024  0.62866831  0.23896629    -0.13200
F900        F  0.92078624  0.66059986  0.09356268    -0.13700
F901        F  0.89931094  0.59419011  0.22382377    -0.16000
F902        F  0.99127936  0.69479719  0.11006909    -0.14500
F903        F  0.02628863  0.63382043  0.15665083    -0.14500
F904        F  0.08643775  0.76967848  0.22037209    -0.16000
C905        C  0.17837051  0.77489000  0.91686415     0.14100
C906        C  0.18584654  0.80723773  0.93523713     0.01100
C907        C  0.19052789  0.83538207  0.90886052     0.16000
C908        C  0.18988888  0.83184383  0.86443605     0.25500
C909        C  0.18476330  0.80012022  0.84602095    -0.40900
C910        C  0.17768153  0.77128140  0.87277077     0.32500
C911        C  0.19209319  0.81201729  0.98159700     0.01100
F912        F  0.19800500  0.86694344  0.92609167    -0.13200
F913        F  0.17173829  0.73997165  0.85617731    -0.13700
C914        C  0.22318009  0.81468446  0.99848035     0.16000
C915        C  0.22730148  0.81358385  0.04237601     0.25500
C916        C  0.20026540  0.80962317  0.07041914    -0.40800
C917        C  0.16994675  0.80902178  0.05348650     0.32400
C918        C  0.16590030  0.81012768  0.00932148     0.14100
F919        F  0.24900960  0.81691116  0.97220898    -0.13200
F920        F  0.14311721  0.80479637  0.07936248    -0.13700
F921        F  0.25738480  0.81528925  0.05739694    -0.16000
F922        F  0.13553833  0.80723462  0.99352193    -0.14500
F923        F  0.17343515  0.74724609  0.94179707    -0.14500
F924        F  0.19721108  0.86030750  0.83966823    -0.16000
C925        C  0.17037288  0.77789419  0.41557257     0.14100
C926        C  0.17943473  0.81070269  0.43392700     0.01100
C927        C  0.18946944  0.84034159  0.40754576     0.16000
C928        C  0.19267278  0.83768029  0.36348512     0.25500
C929        C  0.18646036  0.80543925  0.34557453    -0.40900
C930        C  0.17391573  0.77526699  0.37183404     0.32500
C931        C  0.18470118  0.81480394  0.48042155     0.01100
F932        F  0.19856368  0.87233652  0.42479727    -0.13200
F933        F  0.16682420  0.74353996  0.35538457    -0.13700
C934        C  0.21674165  0.81992110  0.49724224     0.16000
C935        C  0.22084328  0.81832409  0.54101103     0.25500
C936        C  0.19286596  0.81151207  0.56909821    -0.40800
C937        C  0.16129913  0.80824467  0.55230862     0.32400
C938        C  0.15721716  0.80971148  0.50814464     0.14100
F939        F  0.24350092  0.82458267  0.47090251    -0.13200
F940        F  0.13350055  0.80097595  0.57821843    -0.13700
F941        F  0.25184060  0.82202420  0.55580380    -0.16000
F942        F  0.12588758  0.80432603  0.49232646    -0.14500
F943        F  0.16056237  0.74892151  0.44052052    -0.14500
F944        F  0.20490932  0.86727706  0.33903315    -0.16000
C945        C  0.17399128  0.61995533  0.26889382     0.14100
C946        C  0.19890666  0.62047237  0.29746686     0.01100
C947        C  0.22613744  0.65308691  0.31251840     0.16000
C948        C  0.22946295  0.68499375  0.29763179     0.25500
C949        C  0.20543217  0.68480465  0.26732781    -0.40900
C950        C  0.17699952  0.65172042  0.25410589     0.32500
C951        C  0.19796871  0.58712750  0.30934129     0.01100
F952        F  0.25028772  0.65400881  0.34056820    -0.13200
F953        F  0.15256942  0.64985401  0.22582606    -0.13700
C954        C  0.21188171  0.57198068  0.28146047     0.16000
C955        C  0.21325024  0.54166522  0.29340366     0.25500
C956        C  0.20022347  0.52569560  0.33329636    -0.40800
C957        C  0.18504282  0.54025922  0.36053176     0.32400
C958        C  0.18424627  0.57093126  0.34874403     0.14100
F959        F  0.22492175  0.58714196  0.24300370    -0.13200
F960        F  0.17244836  0.52581260  0.39940715    -0.13700
F961        F  0.22734312  0.52795619  0.26595730    -0.16000
F962        F  0.17059243  0.58517925  0.37603490    -0.14500
F963        F  0.14712651  0.58856058  0.25459436    -0.14500
F964        F  0.25674576  0.71597698  0.31223276    -0.16000
C965        C  0.38160189  0.81765025  0.16654515     0.14100
C966        C  0.38031519  0.79143498  0.13959093     0.01100
C967        C  0.34742927  0.76478186  0.12439824     0.16000
C968        C  0.31603258  0.76373518  0.13676561     0.25500
C969        C  0.31690388  0.78931041  0.16502307    -0.40900
C970        C  0.35026326  0.81664007  0.17925885     0.32500
C971        C  0.41313358  0.79173731  0.12666953     0.01100
F972        F  0.34581117  0.73978199  0.09726666    -0.13200
F973        F  0.35274724  0.84210224  0.20623043    -0.13700
C974        C  0.41932665  0.76448825  0.13995258     0.16000
C975        C  0.44805307  0.76218525  0.12366182     0.25500
C976        C  0.47099982  0.78706776  0.09332063    -0.40800
C977        C  0.46581582  0.81566770  0.08223930     0.32400
C978        C  0.43714070  0.81789643  0.09877969     0.14100
F979        F  0.39713922  0.73976530  0.16834335    -0.13200
F980        F  0.48778622  0.84106571  0.05436128    -0.13700
F981        F  0.45291338  0.73524079  0.13716799    -0.16000
F982        F  0.43191226  0.84480769  0.08611947    -0.14500
F983        F  0.41320861  0.84376834  0.18139861    -0.14500
F984        F  0.28485259  0.73746368  0.12116429    -0.16000
loop_ 
_geom_bond_atom_site_label_1 
_geom_bond_atom_site_label_2 
_geom_bond_distance 
_geom_bond_site_symmetry_2 
_ccdc_geom_bond_type 
O1          Cr19   1.965       .  S
O1            C9   1.258       .  A
O2          Cr19   2.021       .  S
O2            C3   1.270       .  A
C3            O4   1.260       .  A
C3          C969   1.490       .  S
O4          Cr20   1.969       .  S
O5          Cr20   2.021       .  S
O5            C6   1.270       .  A
C6            O7   1.260       .  A
C6          C869   1.495       .  S
O7          Cr21   1.976       .  S
O8          Cr21   2.031       .  S
O8            C9   1.271       .  A
C9          C916   1.486       .  S
O10         Cr19   2.016       .  S
O10          C18   1.268       .  A
O11         Cr19   1.972       .  S
O11          C12   1.258       .  A
C12          O13   1.268       .  A
C12         C949   1.492       .  S
O13         Cr20   2.021       .  S
O14         Cr20   1.962       .  S
O14          C15   1.258       .  A
C15          O16   1.270       .  A
C15         C929   1.480       .  S
O16         Cr21   2.032       .  S
O17         Cr21   1.966       .  S
O17          C18   1.258       .  A
C18         C889   1.482       .  S
Cr19         O22   1.764       .  S
Cr20         O22   1.762       .  S
Cr21         O22   1.770       .  S
O23         Cr41   1.959       .  S
O23          C31   1.258       .  A
O24         Cr41   2.014       .  S
O24          C25   1.268       .  A
C25          O26   1.259       .  A
C25         C849   1.480       .  S
O26         Cr42   1.969       .  S
O27         Cr42   2.019       .  S
O27          C28   1.269       .  A
C28          O29   1.260       .  A
C28         C789   1.493       .  S
O29         Cr43   1.976       .  S
O30         Cr43   2.040       .  S
O30          C31   1.273       .  A
C31         C936   1.486       .  S
O32         Cr41   2.013       .  S
O32          C40   1.266       .  A
O33         Cr41   1.974       .  S
O33          C34   1.259       .  A
C34          O35   1.268       .  A
C34         C836   1.489       .  S
O35         Cr42   2.017       .  S
O36         Cr42   1.957       .  S
O36          C37   1.256       .  A
C37          O38   1.272       .  A
C37         C909   1.483       .  S
O38         Cr43   2.039       .  S
O39         Cr43   1.968       .  S
O39          C40   1.258       .  A
C40         C816   1.486       .  S
Cr41         O44   1.765       .  S
Cr42         O44   1.762       .  S
Cr43         O44   1.770       .  S
O45         Cr63   1.961       .  S
O45          C53   1.257       .  A
O46         Cr63   2.017       .  S
O46          C47   1.269       .  A
C47          O48   1.259       .  A
C47         C956   1.482       .  S
O48         Cr64   1.972       .  S
O49         Cr64   2.013       .  S
O49          C50   1.268       .  A
C50          O51   1.260       .  A
C50         C696   1.486       .  S
O51         Cr65   1.976       .  S
O52         Cr65   2.031       .  S
O52          C53   1.270       .  A
C53         C756   1.479       .  S
O54         Cr63   2.020       .  S
O54          C62   1.269       .  A
O55         Cr63   1.969       .  S
O55          C56   1.258       .  A
C56          O57   1.267       .  A
C56         C769   1.485       .  S
O57         Cr64   2.010       .  S
O58         Cr64   1.965       .  S
O58          C59   1.258       .  A
C59          O60   1.270       .  A
C59         C736   1.481       .  S
O60         Cr65   2.031       .  S
O61         Cr65   1.977       .  S
O61          C62   1.261       .  A
C62         C709   1.494       .  S
Cr63         O66   1.762       .  S
Cr64         O66   1.764       .  S
Cr65         O66   1.770       .  S
O67         Cr85   1.965       .  S
O67          C75   1.260       .  A
O68         Cr85   2.009       .  S
O68          C69   1.265       .  A
C69          O70   1.259       .  A
C69         C829   1.487       .  S
O70         Cr86   1.977       .  S
O71         Cr86   2.019       .  S
O71          C72   1.269       .  A
C72          O73   1.262       .  A
C72         C629   1.497       .  S
O73         Cr87   1.980       .  S
O74         Cr87   2.036       .  S
O74          C75   1.273       .  A
C75         C729   1.481       .  S
O76         Cr85   1.998       .  S
O76          C84   1.263       .  A
O77         Cr85   1.978       .  S
O77          C78   1.261       .  A
C78          O79   1.271       .  A
C78         C676   1.493       .  S
O79         Cr86   2.024       .  S
O80         Cr86   1.956       .  S
O80          C81   1.256       .  A
C81          O82   1.271       .  A
C81         C749   1.489   1_556  S
O82         Cr87   2.035       .  S
O83         Cr87   1.989       .  S
O83          C84   1.262       .  A
C84         C649   1.487       .  S
Cr85         O88   1.764       .  S
Cr86         O88   1.763       .  S
Cr87         O88   1.775       .  S
O89        Cr107   1.963   1_556  S
O89          C97   1.259       .  A
O90        Cr107   2.023   1_556  S
O90          C91   1.269   1_556  A
C91          O92   1.260       .  A
C91         C669   1.497   1_554  S
O92        Cr108   1.984       .  S
O93        Cr108   2.014       .  S
O93          C94   1.268       .  A
C94          O95   1.257       .  A
C94         C549   1.487       .  S
O95        Cr109   1.965       .  S
O96        Cr109   2.035   1_556  S
O96          C97   1.273       .  A
C97         C589   1.475       .  S
O98        Cr107   2.024   1_556  S
O98         C106   1.268   1_556  A
O99        Cr107   1.971       .  S
O99         C100   1.261       .  A
C100        O101   1.270       .  A
C100        C976   1.489       .  S
O101       Cr108   2.019       .  S
O102       Cr108   1.955       .  S
O102        C103   1.256       .  A
C103        O104   1.272       .  A
C103        C609   1.493       .  S
O104       Cr109   2.041       .  S
O105       Cr109   1.978       .  S
O105        C106   1.259       .  A
C106        C576   1.498       .  S
Cr107       O110   1.762       .  S
Cr108       O110   1.765       .  S
Cr109       O110   1.772       .  S
O111       Cr129   1.971       .  S
O111        C119   1.259       .  A
O112       Cr129   2.011       .  S
O112        C113   1.267       .  A
C113        O114   1.259       .  A
C113        C776   1.486       .  S
O114       Cr130   1.974       .  S
O115       Cr130   2.001       .  S
O115        C116   1.265       .  A
C116        O117   1.261       .  A
C116        C516   1.484       .  S
O117       Cr131   1.980       .  S
O118       Cr131   2.026       .  S
O118        C119   1.269       .  A
C119        C616   1.480       .  S
O120       Cr129   2.014       .  S
O120        C128   1.267       .  A
O121       Cr129   1.980       .  S
O121        C122   1.262       .  A
C122        O123   1.265       .  A
C122        C856   1.484       .  S
O123       Cr130   2.006       .  S
O124       Cr130   1.969       .  S
O124        C125   1.259       .  A
C125        O126   1.270       .  A
C125        C596   1.478       .  S
O126       Cr131   2.028       .  S
O127       Cr131   1.983       .  S
O127        C128   1.263       .  A
C128        C536   1.495       .  S
Cr129       O132   1.764       .  S
Cr130       O132   1.765       .  S
Cr131       O132   1.772       .  S
O133       Cr151   1.959       .  S
O133        C141   1.257       .  A
O134       Cr151   2.010       .  S
O134        C135   1.267       .  A
C135        O136   1.261       .  A
C135        C496   1.490       .  S
O136       Cr152   1.978       .  S
O137       Cr152   2.022       .  S
O137        C138   1.269       .  A
C138        O139   1.261       .  A
C138        C529   1.494       .  S
O139       Cr153   1.981       .  S
O140       Cr153   2.033       .  S
O140        C141   1.271       .  A
C141        C456   1.488       .  S
O142       Cr151   2.010       .  S
O142        C150   1.267       .  A
O143       Cr151   1.969       .  S
O143        C144   1.258       .  A
C144        O145   1.269       .  A
C144        C469   1.485       .  S
O145       Cr152   2.026       .  S
O146       Cr152   1.966       .  S
O146        C147   1.258       .  A
C147        O148   1.271       .  A
C147        C436   1.476       .  S
O148       Cr153   2.036       .  S
O149       Cr153   1.977       .  S
O149        C150   1.260       .  A
C150        C689   1.491       .  S
Cr151       O154   1.763       .  S
Cr152       O154   1.765       .  S
Cr153       O154   1.772       .  S
O155       Cr173   1.970       .  S
O155        C163   1.260       .  A
O156       Cr173   2.016       .  S
O156        C157   1.268       .  A
C157        O158   1.260       .  A
C157        C416   1.482       .  S
O158       Cr174   1.972       .  S
O159       Cr174   2.021   1_554  S
O159        C160   1.270   1_554  A
C160        O161   1.259       .  A
C160        C569   1.496       .  S
O161       Cr175   1.979       .  S
O162       Cr175   2.031       .  S
O162        C163   1.271       .  A
C163        C429   1.482       .  S
O164       Cr173   2.015       .  S
O164        C172   1.267       .  A
O165       Cr173   1.981       .  S
O165        C166   1.262       .  A
C166        O167   1.268       .  A
C166        C396   1.493   1_556  S
O167       Cr174   2.016       .  S
O168       Cr174   1.954   1_554  S
O168        C169   1.256       .  A
C169        O170   1.271       .  A
C169        C449   1.481       .  S
O170       Cr175   2.034   1_554  S
O171       Cr175   1.978       .  S
O171        C172   1.260       .  A
C172        C636   1.492       .  S
Cr173       O176   1.765       .  S
Cr174       O176   1.766       .  S
Cr175       O176   1.772       .  S
O177       Cr195   1.967       .  S
O177        C185   1.260       .  A
O178       Cr195   2.016       .  S
O178        C179   1.268       .  A
C179        O180   1.259       .  A
C179        C389   1.491       .  S
O180       Cr196   1.975       .  S
O181       Cr196   2.011       .  S
O181        C182   1.266       .  A
C182        O183   1.259       .  A
C182        C896   1.486       .  S
O183       Cr197   1.971       .  S
O184       Cr197   2.035       .  S
O184        C185   1.270       .  A
C185        C329   1.482   1_554  S
O186       Cr195   2.009       .  S
O186        C194   1.267       .  A
O187       Cr195   1.979       .  S
O187        C188   1.261       .  A
C188        O189   1.268       .  A
C188        C369   1.489       .  S
O189       Cr196   2.015       .  S
O190       Cr196   1.961       .  S
O190        C191   1.258       .  A
C191        O192   1.271       .  A
C191        C356   1.482       .  S
O192       Cr197   2.034       .  S
O193       Cr197   1.972       .  S
O193        C194   1.259       .  A
C194        C556   1.482       .  S
Cr195       O198   1.762       .  S
Cr196       O198   1.764       .  S
Cr197       O198   1.773       .  S
O199       Cr217   1.968       .  S
O199        C207   1.258       .  A
O200       Cr217   2.014       .  S
O200        C201   1.266       .  A
C201        O202   1.258       .  A
C201        C476   1.492       .  S
O202       Cr218   1.975       .  S
O203       Cr218   2.010       .  S
O203        C204   1.268       .  A
C204        O205   1.259       .  A
C204        C809   1.475       .  S
O205       Cr219   1.963       .  S
O206       Cr219   2.029       .  S
O206        C207   1.269       .  A
C207        C349   1.470       .  S
O208       Cr217   2.014       .  S
O208        C216   1.268       .  A
O209       Cr217   1.961       .  S
O209        C210   1.258       .  A
C210        O211   1.268       .  A
C210        C316   1.480       .  S
O211       Cr218   2.010       .  S
O212       Cr218   1.967       .  S
O212        C213   1.258       .  A
C213        O214   1.269       .  A
C213        C336   1.495       .  S
O214       Cr219   2.030       .  S
O215       Cr219   1.970       .  S
O215        C216   1.260       .  A
C216        C509   1.485       .  S
Cr217       O220   1.762       .  S
Cr218       O220   1.763       .  S
Cr219       O220   1.770       .  S
O221       Cr239   1.969       .  S
O221        C229   1.258       .  A
O222       Cr239   2.026       .  S
O222        C223   1.270       .  A
C223        O224   1.257       .  A
C223        C376   1.489       .  S
O224       Cr240   1.967       .  S
O225       Cr240   2.014       .  S
O225        C226   1.268       .  A
C226        O227   1.261       .  A
C226        C716   1.482       .  S
O227       Cr241   1.976       .  S
O228       Cr241   2.034       .  S
O228        C229   1.271       .  A
C229        C289   1.481       .  S
O230       Cr239   2.024       .  S
O230        C238   1.270       .  A
O231       Cr239   1.977       .  S
O231        C232   1.260       .  A
C232        O233   1.268       .  A
C232        C489   1.492       .  S
O233       Cr240   2.015       .  S
O234       Cr240   1.964       .  S
O234        C235   1.258       .  A
C235        O236   1.271       .  A
C235        C276   1.485       .  S
O236       Cr241   2.039       .  S
O237       Cr241   1.979       .  S
O237        C238   1.262       .  A
C238        C876   1.497       .  S
Cr239       O242   1.767       .  S
Cr240       O242   1.765       .  S
Cr241       O242   1.774       .  S
O243       Cr261   1.977       .  S
O243        C251   1.258       .  A
O244       Cr261   2.010       .  S
O244        C245   1.267       .  A
C245        O246   1.258       .  A
C245        C309   1.481       .  S
O246       Cr262   1.965       .  S
O247       Cr262   2.010       .  S
O247        C248   1.265       .  A
C248        O249   1.260       .  A
C248        C656   1.488       .  S
O249       Cr263   1.975       .  S
O250       Cr263   2.027       .  S
O250        C251   1.268       .  A
C251        C269   1.477       .  S
O252       Cr261   2.014       .  S
O252        C260   1.269       .  A
O253       Cr261   1.984       .  S
O253        C254   1.261       .  A
C254        O255   1.265       .  A
C254        C409   1.481       .  S
O255       Cr262   2.006       .  S
O256       Cr262   1.969       .  S
O256        C257   1.259       .  A
C257        O258   1.272       .  A
C257        C296   1.480       .  S
O258       Cr263   2.033       .  S
O259       Cr263   1.975       .  S
O259        C260   1.262       .  A
C260        C796   1.485       .  S
Cr261       O264   1.765       .  S
Cr262       O264   1.764       .  S
Cr263       O264   1.768       .  S
C265        C266   1.407       .  A
C265        C270   1.401       .  A
C265        F283   1.358       .  S
C266        C271   1.488       .  S
C266        C267   1.408       .  A
C267        C268   1.404       .  A
C267        F272   1.358       .  S
C268        C269   1.406       .  A
C268        F284   1.358       .  S
C269        C270   1.404       .  A
C270        F273   1.358       .  S
C271        C274   1.408       .  A
C271        C278   1.405       .  A
C274        C275   1.409       .  A
C274        F279   1.358       .  S
C275        C276   1.411       .  A
C275        F281   1.358       .  S
C276        C277   1.407       .  A
C277        C278   1.396       .  A
C277        F280   1.358       .  S
C278        F282   1.358       .  S
C285        C286   1.404       .  A
C285        C290   1.400       .  A
C285        F303   1.358       .  S
C286        C291   1.483       .  S
C286        C287   1.406       .  A
C287        C288   1.404       .  A
C287        F292   1.358       .  S
C288        C289   1.408       .  A
C288        F304   1.358       .  S
C289        C290   1.407       .  A
C290        F293   1.358       .  S
C291        C294   1.405   1_554  A
C291        C298   1.405   1_554  A
C294        C295   1.401       .  A
C294        F299   1.358   1_556  S
C295        C296   1.407       .  A
C295        F301   1.358       .  S
C296        C297   1.408       .  A
C297        C298   1.403       .  A
C297        F300   1.358       .  S
C298        F302   1.357   1_556  S
C305        C306   1.401       .  A
C305        C310   1.396       .  A
C305        F323   1.358       .  S
C306        C311   1.470       .  S
C306        C307   1.400       .  A
C307        C308   1.394       .  A
C307        F312   1.358       .  S
C308        C309   1.412       .  A
C308        F324   1.358       .  S
C309        C310   1.411       .  A
C310        F313   1.358       .  S
C311        C314   1.400       .  A
C311        C318   1.402       .  A
C314        C315   1.394       .  A
C314        F319   1.358       .  S
C315        C316   1.412       .  A
C315        F321   1.358       .  S
C316        C317   1.411       .  A
C317        C318   1.395       .  A
C317        F320   1.358       .  S
C318        F322   1.358       .  S
C325        C326   1.407       .  A
C325        C330   1.408       .  A
C325        F343   1.358       .  S
C326        C331   1.488       .  S
C326        C327   1.406       .  A
C327        C328   1.395       .  A
C327        F332   1.358       .  S
C328        C329   1.405       .  A
C328        F344   1.358       .  S
C329        C330   1.411       .  A
C330        F333   1.358   1_556  S
C331        C334   1.406       .  A
C331        C338   1.404       .  A
C334        C335   1.408       .  A
C334        F339   1.357       .  S
C335        C336   1.414       .  A
C335        F341   1.357       .  S
C336        C337   1.412       .  A
C337        C338   1.395       .  A
C337        F340   1.358       .  S
C338        F342   1.359       .  S
C345        C346   1.408       .  A
C345        C350   1.401       .  A
C345        F363   1.358       .  S
C346        C351   1.484       .  S
C346        C347   1.407       .  A
C347        C348   1.399       .  A
C347        F352   1.358       .  S
C348        C349   1.404       .  A
C348        F364   1.358       .  S
C349        C350   1.403       .  A
C350        F353   1.358       .  S
C351        C354   1.405       .  A
C351        C358   1.407       .  A
C354        C355   1.395       .  A
C354        F359   1.358       .  S
C355        C356   1.407       .  A
C355        F361   1.358       .  S
C356        C357   1.410       .  A
C357        C358   1.405       .  A
C357        F360   1.358       .  S
C358        F362   1.358       .  S
C365        C366   1.402       .  A
C365        C370   1.401       .  A
C365        F383   1.358       .  S
C366        C371   1.479       .  S
C366        C367   1.402       .  A
C367        C368   1.400       .  A
C367        F372   1.358       .  S
C368        C369   1.411       .  A
C368        F384   1.358       .  S
C369        C370   1.412       .  A
C370        F373   1.358       .  S
C371        C374   1.403       .  A
C371        C378   1.401       .  A
C374        C375   1.401       .  A
C374        F379   1.358       .  S
C375        C376   1.410       .  A
C375        F381   1.357       .  S
C376        C377   1.414       .  A
C377        C378   1.401       .  A
C377        F380   1.358       .  S
C378        F382   1.358       .  S
C385        C386   1.403       .  A
C385        C390   1.401       .  A
C385        F403   1.358       .  S
C386        C391   1.481       .  S
C386        C387   1.403       .  A
C387        C388   1.399       .  A
C387        F392   1.358       .  S
C388        C389   1.412       .  A
C388        F404   1.358       .  S
C389        C390   1.414       .  A
C390        F393   1.358       .  S
C391        C394   1.403       .  A
C391        C398   1.403       .  A
C394        C395   1.399       .  A
C394        F399   1.358       .  S
C395        C396   1.413       .  A
C395        F401   1.358       .  S
C396        C397   1.414       .  A
C397        C398   1.402       .  A
C397        F400   1.358   1_554  S
C398        F402   1.358       .  S
C405        C406   1.405       .  A
C405        C410   1.396       .  A
C405        F423   1.358       .  S
C406        C411   1.485       .  S
C406        C407   1.408       .  A
C407        C408   1.402       .  A
C407        F412   1.358       .  S
C408        C409   1.407       .  A
C408        F424   1.358       .  S
C409        C410   1.409       .  A
C410        F413   1.358       .  S
C411        C414   1.406       .  A
C411        C418   1.407       .  A
C414        C415   1.400       .  A
C414        F419   1.358       .  S
C415        C416   1.409       .  A
C415        F421   1.358       .  S
C416        C417   1.407       .  A
C417        C418   1.399       .  A
C417        F420   1.358       .  S
C418        F422   1.358       .  S
C425        C426   1.407       .  A
C425        C430   1.404       .  A
C425        F443   1.358       .  S
C426        C431   1.487       .  S
C426        C427   1.406       .  A
C427        C428   1.399       .  A
C427        F432   1.358       .  S
C428        C429   1.407       .  A
C428        F444   1.358       .  S
C429        C430   1.408       .  A
C430        F433   1.358       .  S
C431        C434   1.408       .  A
C431        C438   1.407       .  A
C434        C435   1.404       .  A
C434        F439   1.358       .  S
C435        C436   1.406       .  A
C435        F441   1.358       .  S
C436        C437   1.404       .  A
C437        C438   1.400       .  A
C437        F440   1.358       .  S
C438        F442   1.358       .  S
C445        C446   1.404       .  A
C445        C450   1.394       .  A
C445        F463   1.358       .  S
C446        C451   1.483       .  S
C446        C447   1.407       .  A
C447        C448   1.405       .  A
C447        F452   1.357       .  S
C448        C449   1.408       .  A
C448        F464   1.357       .  S
C449        C450   1.409       .  A
C450        F453   1.359       .  S
C451        C454   1.404       .  A
C451        C458   1.404       .  A
C454        C455   1.396       .  A
C454        F459   1.359       .  S
C455        C456   1.412       .  A
C455        F461   1.359       .  S
C456        C457   1.411       .  A
C457        C458   1.404       .  A
C457        F460   1.357       .  S
C458        F462   1.357       .  S
C465        C466   1.405       .  A
C465        C470   1.404       .  A
C465        F483   1.358       .  S
C466        C471   1.479       .  S
C466        C467   1.401       .  A
C467        C468   1.397       .  A
C467        F472   1.358       .  S
C468        C469   1.411       .  A
C468        F484   1.358       .  S
C469        C470   1.409       .  A
C470        F473   1.358       .  S
C471        C474   1.402       .  A
C471        C478   1.402       .  A
C474        C475   1.402       .  A
C474        F479   1.358       .  S
C475        C476   1.414       .  A
C475        F481   1.358       .  S
C476        C477   1.413       .  A
C477        C478   1.399       .  A
C477        F480   1.358       .  S
C478        F482   1.358       .  S
C485        C486   1.403       .  A
C485        C490   1.401       .  A
C485        F503   1.358       .  S
C486        C491   1.481       .  S
C486        C487   1.403       .  A
C487        C488   1.398       .  A
C487        F492   1.358       .  S
C488        C489   1.413       .  A
C488        F504   1.358       .  S
C489        C490   1.414       .  A
C490        F493   1.358       .  S
C491        C494   1.403       .  A
C491        C498   1.403       .  A
C494        C495   1.397       .  A
C494        F499   1.358       .  S
C495        C496   1.412       .  A
C495        F501   1.358       .  S
C496        C497   1.413       .  A
C497        C498   1.401       .  A
C497        F500   1.358       .  S
C498        F502   1.358       .  S
C505        C506   1.401       .  A
C505        C510   1.399       .  A
C505        F523   1.358       .  S
C506        C511   1.474       .  S
C506        C507   1.402       .  A
C507        C508   1.396       .  A
C507        F512   1.358       .  S
C508        C509   1.411       .  A
C508        F524   1.358       .  S
C509        C510   1.412       .  A
C510        F513   1.358       .  S
C511        C514   1.400       .  A
C511        C518   1.404       .  A
C514        C515   1.395       .  A
C514        F519   1.358       .  S
C515        C516   1.412       .  A
C515        F521   1.358       .  S
C516        C517   1.411       .  A
C517        C518   1.400       .  A
C517        F520   1.358       .  S
C518        F522   1.358       .  S
C525        C526   1.403       .  A
C525        C530   1.400       .  A
C525        F543   1.358       .  S
C526        C531   1.488   1_545  S
C526        C527   1.406       .  A
C527        C528   1.404       .  A
C527        F532   1.358       .  S
C528        C529   1.413       .  A
C528        F544   1.358       .  S
C529        C530   1.412       .  A
C530        F533   1.357       .  S
C531        C534   1.404       .  A
C531        C538   1.405       .  A
C534        C535   1.403       .  A
C534        F539   1.358       .  S
C535        C536   1.415       .  A
C535        F541   1.358       .  S
C536        C537   1.412       .  A
C537        C538   1.401       .  A
C537        F540   1.358       .  S
C538        F542   1.358       .  S
C545        C546   1.404       .  A
C545        C550   1.399       .  A
C545        F563   1.358       .  S
C546        C551   1.479       .  S
C546        C547   1.403       .  A
C547        C548   1.396       .  A
C547        F552   1.358       .  S
C548        C549   1.410       .  A
C548        F564   1.357       .  S
C549        C550   1.414       .  A
C550        F553   1.358       .  S
C551        C554   1.405       .  A
C551        C558   1.403       .  A
C554        C555   1.399       .  A
C554        F559   1.358       .  S
C555        C556   1.410       .  A
C555        F561   1.358       .  S
C556        C557   1.411       .  A
C557        C558   1.396       .  A
C557        F560   1.358       .  S
C558        F562   1.358       .  S
C565        C566   1.405       .  A
C565        C570   1.404       .  A
C565        F583   1.358       .  S
C566        C571   1.490   1_546  S
C566        C567   1.405   1_556  A
C567        C568   1.402       .  A
C567        F572   1.358       .  S
C568        C569   1.412   1_554  A
C568        F584   1.358       .  S
C569        C570   1.414       .  A
C570        F573   1.358       .  S
C571        C574   1.405       .  A
C571        C578   1.405   1_554  A
C574        C575   1.402       .  A
C574        F579   1.358       .  S
C575        C576   1.414       .  A
C575        F581   1.358       .  S
C576        C577   1.414   1_554  A
C577        C578   1.403       .  A
C577        F580   1.358       .  S
C578        F582   1.358       .  S
C585        C586   1.406       .  A
C585        C590   1.402       .  A
C585        F603   1.358       .  S
C586        C591   1.482       .  S
C586        C587   1.405       .  A
C587        C588   1.398       .  A
C587        F592   1.358       .  S
C588        C589   1.406       .  A
C588        F604   1.358       .  S
C589        C590   1.406       .  A
C590        F593   1.358       .  S
C591        C594   1.406       .  A
C591        C598   1.405       .  A
C594        C595   1.403       .  A
C594        F599   1.358       .  S
C595        C596   1.409       .  A
C595        F601   1.358       .  S
C596        C597   1.405       .  A
C597        C598   1.398       .  A
C597        F600   1.358       .  S
C598        F602   1.358       .  S
C605        C606   1.407       .  A
C605        C610   1.410       .  A
C605        F623   1.357       .  S
C606        C611   1.484       .  S
C606        C607   1.401       .  A
C607        C608   1.392       .  A
C607        F612   1.359       .  S
C608        C609   1.413       .  A
C608        F624   1.358       .  S
C609        C610   1.413       .  A
C610        F613   1.357       .  S
C611        C614   1.406       .  A
C611        C618   1.406       .  A
C614        C615   1.405       .  A
C614        F619   1.357       .  S
C615        C616   1.409       .  A
C615        F621   1.358       .  S
C616        C617   1.406       .  A
C617        C618   1.397       .  A
C617        F620   1.358       .  S
C618        F622   1.358       .  S
C625        C626   1.402       .  A
C625        C630   1.402       .  A
C625        F643   1.358       .  S
C626        C631   1.484   1_455  S
C626        C627   1.404       .  A
C627        C628   1.402       .  A
C627        F632   1.358       .  S
C628        C629   1.414       .  A
C628        F644   1.358       .  S
C629        C630   1.414       .  A
C630        F633   1.357       .  S
C631        C634   1.403       .  A
C631        C638   1.404       .  A
C634        C635   1.400       .  A
C634        F639   1.358       .  S
C635        C636   1.413       .  A
C635        F641   1.358       .  S
C636        C637   1.413       .  A
C637        C638   1.402       .  A
C637        F640   1.358   1_556  S
C638        F642   1.358       .  S
C645        C646   1.402       .  A
C645        C650   1.396       .  A
C645        F663   1.358       .  S
C646        C651   1.481       .  S
C646        C647   1.406       .  A
C647        C648   1.401       .  A
C647        F652   1.358       .  S
C648        C649   1.409       .  A
C648        F664   1.358       .  S
C649        C650   1.414       .  A
C650        F653   1.358       .  S
C651        C654   1.404       .  A
C651        C658   1.404       .  A
C654        C655   1.400       .  A
C654        F659   1.358       .  S
C655        C656   1.413       .  A
C655        F661   1.358       .  S
C656        C657   1.411       .  A
C657        C658   1.396       .  A
C657        F660   1.358       .  S
C658        F662   1.358       .  S
C665        C666   1.406       .  A
C665        C670   1.401       .  A
C665        F683   1.358       .  S
C666        C671   1.492       .  S
C666        C667   1.406       .  A
C667        C668   1.406   1_556  A
C667        F672   1.358   1_556  S
C668        C669   1.415   1_554  A
C668        F684   1.358       .  S
C669        C670   1.411       .  A
C670        F673   1.357       .  S
C671        C674   1.407       .  A
C671        C678   1.406       .  A
C674        C675   1.406       .  A
C674        F679   1.358       .  S
C675        C676   1.414       .  A
C675        F681   1.358       .  S
C676        C677   1.410       .  A
C677        C678   1.399       .  A
C677        F680   1.358       .  S
C678        F682   1.358       .  S
C685        C686   1.403       .  A
C685        C690   1.400       .  A
C685        F703   1.358       .  S
C686        C691   1.480   1_655  S
C686        C687   1.403       .  A
C687        C688   1.398       .  A
C687        F692   1.358       .  S
C688        C689   1.412       .  A
C688        F704   1.357       .  S
C689        C690   1.414       .  A
C690        F693   1.358       .  S
C691        C694   1.403       .  A
C691        C698   1.404       .  A
C694        C695   1.398       .  A
C694        F699   1.358       .  S
C695        C696   1.411       .  A
C695        F701   1.358       .  S
C696        C697   1.411       .  A
C697        C698   1.400       .  A
C697        F700   1.358       .  S
C698        F702   1.358       .  S
C705        C706   1.404       .  A
C705        C710   1.403       .  A
C705        F723   1.358       .  S
C706        C711   1.486       .  S
C706        C707   1.405       .  A
C707        C708   1.399       .  A
C707        F712   1.358       .  S
C708        C709   1.412       .  A
C708        F724   1.358       .  S
C709        C710   1.413       .  A
C710        F713   1.357       .  S
C711        C714   1.406       .  A
C711        C718   1.406       .  A
C714        C715   1.403       .  A
C714        F719   1.358       .  S
C715        C716   1.409       .  A
C715        F721   1.358       .  S
C716        C717   1.407       .  A
C717        C718   1.399       .  A
C717        F720   1.358       .  S
C718        F722   1.358       .  S
C725        C726   1.402       .  A
C725        C730   1.396       .  A
C725        F743   1.358       .  S
C726        C731   1.478       .  S
C726        C727   1.404       .  A
C727        C728   1.405       .  A
C727        F732   1.358       .  S
C728        C729   1.410       .  A
C728        F744   1.358       .  S
C729        C730   1.407       .  A
C730        F733   1.358       .  S
C731        C734   1.403       .  A
C731        C738   1.404       .  A
C734        C735   1.398       .  A
C734        F739   1.358       .  S
C735        C736   1.409       .  A
C735        F741   1.358       .  S
C736        C737   1.409       .  A
C737        C738   1.403       .  A
C737        F740   1.358       .  S
C738        F742   1.357       .  S
C745        C746   1.402       .  A
C745        C750   1.395       .  A
C745        F763   1.359       .  S
C746        C751   1.480       .  S
C746        C747   1.404       .  A
C747        C748   1.406       .  A
C747        F752   1.357       .  S
C748        C749   1.411       .  A
C748        F764   1.357       .  S
C749        C750   1.413       .  A
C750        F753   1.359       .  S
C751        C754   1.404       .  A
C751        C758   1.404       .  A
C754        C755   1.397       .  A
C754        F759   1.358       .  S
C755        C756   1.408       .  A
C755        F761   1.359       .  S
C756        C757   1.409       .  A
C757        C758   1.404       .  A
C757        F760   1.358       .  S
C758        F762   1.357       .  S
C765        C766   1.401       .  A
C765        C770   1.397       .  A
C765        F783   1.358       .  S
C766        C771   1.471       .  S
C766        C767   1.400       .  A
C767        C768   1.398       .  A
C767        F772   1.358       .  S
C768        C769   1.414       .  A
C768        F784   1.358       .  S
C769        C770   1.412       .  A
C770        F773   1.358       .  S
C771        C774   1.400       .  A
C771        C778   1.401       .  A
C774        C775   1.398       .  A
C774        F779   1.358       .  S
C775        C776   1.413       .  A
C775        F781   1.358       .  S
C776        C777   1.412       .  A
C777        C778   1.397       .  A
C777        F780   1.358       .  S
C778        F782   1.358       .  S
C785        C786   1.404       .  A
C785        C790   1.400       .  A
C785        F803   1.358       .  S
C786        C791   1.484   1_565  S
C786        C787   1.404       .  A
C787        C788   1.402       .  A
C787        F792   1.358       .  S
C788        C789   1.412       .  A
C788        F804   1.358       .  S
C789        C790   1.413       .  A
C790        F793   1.358       .  S
C791        C794   1.405       .  A
C791        C798   1.405       .  A
C794        C795   1.399       .  A
C794        F799   1.358       .  S
C795        C796   1.409       .  A
C795        F801   1.358       .  S
C796        C797   1.409       .  A
C797        C798   1.402       .  A
C797        F800   1.358       .  S
C798        F802   1.358       .  S
C805        C806   1.405       .  A
C805        C810   1.399       .  A
C805        F823   1.358       .  S
C806        C811   1.478   1_655  S
C806        C807   1.405       .  A
C807        C808   1.394       .  A
C807        F812   1.358       .  S
C808        C809   1.407       .  A
C808        F824   1.358       .  S
C809        C810   1.408       .  A
C810        F813   1.358       .  S
C811        C814   1.404       .  A
C811        C818   1.403       .  A
C814        C815   1.401       .  A
C814        F819   1.358       .  S
C815        C816   1.412       .  A
C815        F821   1.358       .  S
C816        C817   1.411       .  A
C817        C818   1.394       .  A
C817        F820   1.358       .  S
C818        F822   1.358       .  S
C825        C826   1.402       .  A
C825        C830   1.400       .  A
C825        F843   1.358       .  S
C826        C831   1.478       .  S
C826        C827   1.402       .  A
C827        C828   1.399       .  A
C827        F832   1.358       .  S
C828        C829   1.412       .  A
C828        F844   1.358       .  S
C829        C830   1.412       .  A
C830        F833   1.358       .  S
C831        C834   1.402       .  A
C831        C838   1.402       .  A
C834        C835   1.398       .  A
C834        F839   1.358       .  S
C835        C836   1.412       .  A
C835        F841   1.358       .  S
C836        C837   1.414       .  A
C837        C838   1.400       .  A
C837        F840   1.358       .  S
C838        F842   1.358       .  S
C845        C846   1.402       .  A
C845        C850   1.398       .  A
C845        F863   1.358       .  S
C846        C851   1.476       .  S
C846        C847   1.404       .  A
C847        C848   1.398       .  A
C847        F852   1.358       .  S
C848        C849   1.408       .  A
C848        F864   1.358       .  S
C849        C850   1.411       .  A
C850        F853   1.358       .  S
C851        C854   1.402       .  A
C851        C858   1.403       .  A
C854        C855   1.397       .  A
C854        F859   1.358       .  S
C855        C856   1.413       .  A
C855        F861   1.358       .  S
C856        C857   1.409       .  A
C857        C858   1.400       .  A
C857        F860   1.358       .  S
C858        F862   1.357       .  S
C865        C866   1.402       .  A
C865        C870   1.401       .  A
C865        F883   1.357       .  S
C866        C871   1.483   1_565  S
C866        C867   1.403       .  A
C867        C868   1.402       .  A
C867        F872   1.358       .  S
C868        C869   1.415       .  A
C868        F884   1.358       .  S
C869        C870   1.413       .  A
C870        F873   1.358       .  S
C871        C874   1.402       .  A
C871        C878   1.403       .  A
C874        C875   1.402       .  A
C874        F879   1.358       .  S
C875        C876   1.414       .  A
C875        F881   1.357       .  S
C876        C877   1.414       .  A
C877        C878   1.402       .  A
C877        F880   1.358       .  S
C878        F882   1.358       .  S
C885        C886   1.401       .  A
C885        C890   1.399       .  A
C885        F903   1.358       .  S
C886        C891   1.472   1_455  S
C886        C887   1.401       .  A
C887        C888   1.397       .  A
C887        F892   1.358       .  S
C888        C889   1.412       .  A
C888        F904   1.358       .  S
C889        C890   1.409       .  A
C890        F893   1.358       .  S
C891        C894   1.400       .  A
C891        C898   1.401       .  A
C894        C895   1.399       .  A
C894        F899   1.358       .  S
C895        C896   1.414       .  A
C895        F901   1.358       .  S
C896        C897   1.412       .  A
C897        C898   1.397       .  A
C897        F900   1.358       .  S
C898        F902   1.358       .  S
C905        C906   1.402       .  A
C905        C910   1.396       .  A
C905        F923   1.358       .  S
C906        C911   1.481       .  S
C906        C907   1.405       .  A
C907        C908   1.406       .  A
C907        F912   1.357       .  S
C908        C909   1.409       .  A
C908        F924   1.358       .  S
C909        C910   1.409       .  A
C910        F913   1.359       .  S
C911        C914   1.403       .  A
C911        C918   1.404   1_556  A
C914        C915   1.397   1_556  A
C914        F919   1.358       .  S
C915        C916   1.410       .  A
C915        F921   1.358       .  S
C916        C917   1.411       .  A
C917        C918   1.405       .  A
C917        F920   1.357       .  S
C918        F922   1.357   1_554  S
C925        C926   1.403       .  A
C925        C930   1.396       .  A
C925        F943   1.358       .  S
C926        C931   1.479       .  S
C926        C927   1.405       .  A
C927        C928   1.405       .  A
C927        F932   1.357       .  S
C928        C929   1.408       .  A
C928        F944   1.358       .  S
C929        C930   1.408       .  A
C930        F933   1.359       .  S
C931        C934   1.401       .  A
C931        C938   1.405       .  A
C934        C935   1.395       .  A
C934        F939   1.358       .  S
C935        C936   1.410       .  A
C935        F941   1.358       .  S
C936        C937   1.411       .  A
C937        C938   1.407       .  A
C937        F940   1.357       .  S
C938        F942   1.357       .  S
C945        C946   1.400       .  A
C945        C950   1.399       .  A
C945        F963   1.358       .  S
C946        C951   1.477       .  S
C946        C947   1.402       .  A
C947        C948   1.401       .  A
C947        F952   1.358       .  S
C948        C949   1.413       .  A
C948        F964   1.358       .  S
C949        C950   1.414       .  A
C950        F953   1.358       .  S
C951        C954   1.404       .  A
C951        C958   1.402       .  A
C954        C955   1.400       .  A
C954        F959   1.358       .  S
C955        C956   1.408       .  A
C955        F961   1.358       .  S
C956        C957   1.411       .  A
C957        C958   1.401       .  A
C957        F960   1.358       .  S
C958        F962   1.358       .  S
C965        C966   1.401       .  A
C965        C970   1.400       .  A
C965        F983   1.358       .  S
C966        C971   1.478       .  S
C966        C967   1.403       .  A
C967        C968   1.398       .  A
C967        F972   1.358       .  S
C968        C969   1.411       .  A
C968        F984   1.358       .  S
C969        C970   1.415       .  A
C970        F973   1.358       .  S
C971        C974   1.403       .  A
C971        C978   1.401       .  A
C974        C975   1.399       .  A
C974        F979   1.358       .  S
C975        C976   1.412       .  A
C975        F981   1.358       .  S
C976        C977   1.413       .  A
C977        C978   1.398       .  A
C977        F980   1.358       .  S
C978        F982   1.358       .  S
