geometry optimzed in LAMMPS
_audit_creation_date              2020-11-30 
_audit_creation_method            'lammps2cif' 
_symmetry_space_group_name_H-M    'P1' 
_symmetry_Int_Tables_number       1 
_symmetry_cell_setting            triclinic 
loop_ 
_symmetry_equiv_pos_as_xyz 
  x,y,z 
_cell_length_a                    62.69761756 
_cell_length_b                    62.885474947836265 
_cell_length_c                    39.23408785508154 
_cell_angle_alpha                 89.85328896664932 
_cell_angle_beta                  90.01740431736029 
_cell_angle_gamma                 119.80544418062182 
loop_ 
_atom_site_label 
_atom_site_type_symbol 
_atom_site_fract_x 
_atom_site_fract_y 
_atom_site_fract_z 
_atom_site_charge 
O1          O  0.08489468  0.44613003  0.18483545    -0.81800
C2          C  0.17388821  0.46370631  0.24160011     0.97600
O3          O  0.16074020  0.44570138  0.22192718    -0.70900
O4          O  0.11419343  0.42051949  0.23522706    -0.74500
Al5        Al  0.13087513  0.43677631  0.19589401     1.49000
C6          C  0.09937583  0.42186082  0.25525566     0.92800
O7          O  0.12003125  0.48569671  0.25936966    -0.80700
O8          O  0.14749372  0.50285308  0.16658864    -0.74300
Al9        Al  0.10480810  0.46555000  0.22056781     1.90100
O10         O  0.15334496  0.51220510  0.23363790    -0.73400
O11         O  0.17657206  0.48314996  0.17161907    -0.73200
O12         O  0.17328528  0.48357179  0.23983920    -0.78900
O13         O  0.14804200  0.44785400  0.15360620    -0.77100
O14         O  0.13159363  0.46472605  0.20655286    -1.13200
O15         O  0.10074698  0.42345752  0.16924727    -0.72400
C16         C  0.08430485  0.42950691  0.16660829     0.98300
C17         C  0.13809682  0.50700819  0.25722151     0.94700
Al18       Al  0.16003354  0.49282869  0.20319737     1.55600
O19         O  0.09317394  0.43798920  0.25136339    -0.77000
C20         C  0.16941406  0.46576833  0.15100462     0.98900
C21         C  0.12780840  0.50387843  0.16817060     0.93800
O22         O  0.11185486  0.49308739  0.19146922    -0.82300
O23         O  0.98294321  0.19678507  0.44341245    -0.81800
C24         C  0.01910549  0.19600988  0.31245465     0.97600
O25         O  0.01011162  0.17809598  0.33309464    -0.70900
O26         O  0.03024367  0.18853639  0.39283940    -0.74500
Al27       Al  0.99727348  0.17424283  0.37847737     1.49000
C28         C  0.04074286  0.20278520  0.41727592     0.92800
O29         O  0.03093848  0.24973682  0.39073454    -0.80700
O30         O  0.96050084  0.21159390  0.36504209    -0.74300
Al31       Al  0.00642556  0.22181480  0.41501119     1.90100
O32         O  0.00760811  0.24568475  0.34685801    -0.73400
O33         O  0.96417093  0.17945936  0.32499903    -0.73200
O34         O  0.01300724  0.21236293  0.31424417    -0.78900
O35         O  0.96404017  0.15511058  0.36426743    -0.77100
O36         O  0.99703517  0.20246732  0.37824507    -1.13200
O37         O  0.98474960  0.16523364  0.42376238    -0.72400
C38         C  0.97701178  0.17454822  0.44561173     0.98300
C39         C  0.02622111  0.25868627  0.36488119     0.94700
Al40       Al  0.98713121  0.21144841  0.34096416     1.55600
O41         O  0.03186195  0.21531451  0.42928967    -0.77000
C42         C  0.95435156  0.15851600  0.33831581     0.98900
C43         C  0.96344147  0.22405973  0.39172730     0.93800
O44         O  0.98277873  0.23216075  0.40933830    -0.82300
O45         O  0.86318234  0.33804005  0.11240051    -0.81800
C46         C  0.82684121  0.30728222  0.48233862     0.97600
O47         O  0.81955308  0.31004619  0.01177044    -0.70900
O48         O  0.81773172  0.30785943  0.07855912    -0.74500
Al49       Al  0.83501441  0.33354924  0.04617216     1.49000
C50         C  0.82013430  0.29009430  0.08823683     0.92800
O51         O  0.88207577  0.30116415  0.05246258    -0.80700
O52         O  0.91144371  0.35388262  0.02539179    -0.74300
Al53       Al  0.87146876  0.32026355  0.07905428     1.90100
O54         O  0.87725051  0.30916936  0.99939656    -0.73400
O55         O  0.88099904  0.37056116  0.50105011    -0.73200
O56         O  0.84880916  0.32319395  0.47426287    -0.78900
O57         O  0.84464267  0.36008641  0.01463181    -0.77100
O58         O  0.86211859  0.33121437  0.04331524    -1.13200
O59         O  0.84865415  0.35695322  0.08074085    -0.72400
C60         C  0.85688567  0.35430277  0.10878950     0.98300
C61         C  0.88151764  0.29686153  0.02082326     0.94700
Al62       Al  0.87915430  0.33978115  0.00448821     1.55600
O63         O  0.84032578  0.29072449  0.08353845    -0.77000
C64         C  0.86283639  0.37390742  0.49913617     0.98900
C65         C  0.91870878  0.35734195  0.05604159     0.93800
O66         O  0.90357650  0.34759883  0.08004622    -0.82300
O67         O  0.88725356  0.56907660  0.24606119    -0.81800
C68         C  0.86145440  0.50446542  0.35638534     0.97600
O69         O  0.86548364  0.52629763  0.35971328    -0.70900
O70         O  0.90629026  0.55701549  0.33041379    -0.74500
Al71       Al  0.87469853  0.55196407  0.32521530     1.49000
C72         C  0.92256549  0.55977874  0.30946863     0.92800
O73         O  0.88956353  0.51066060  0.25487331    -0.80700
O74         O  0.82656130  0.51006340  0.25580660    -0.74300
Al75       Al  0.88671658  0.53937774  0.25339544     1.90100
O76         O  0.85088945  0.48468777  0.26331418    -0.73400
O77         O  0.82182286  0.51049648  0.32242727    -0.73200
O78         O  0.85335970  0.49287714  0.32888027    -0.78900
O79         O  0.84348750  0.55006385  0.32505122    -0.77100
O80         O  0.86760610  0.53144791  0.29026764    -1.13200
O81         O  0.88615238  0.58135849  0.29787035    -0.72400
C82         C  0.88894569  0.58533205  0.26611781     0.98300
C83         C  0.87196258  0.48904829  0.25462287     0.94700
Al84       Al  0.84051979  0.50210680  0.29238162     1.55600
O85         O  0.91760548  0.55511518  0.27813584    -0.77000
C86         C  0.82342990  0.53071031  0.32978170     0.98900
C87         C  0.83614410  0.51816253  0.22688507     0.93800
O88         O  0.85887186  0.52555293  0.22192570    -0.82300
O89         O  0.11585397  0.68988661  0.49109126    -0.81800
C90         C  0.15169528  0.64637167  0.40078953     0.97600
O91         O  0.14798483  0.66378356  0.39160221    -0.70900
O92         O  0.10492981  0.65513085  0.41008880    -0.74500
Al93       Al  0.13560435  0.68195602  0.41823773     1.49000
C94         C  0.08636414  0.64344918  0.42845745     0.92800
O95         O  0.11595313  0.62921377  0.99524495    -0.80700
O96         O  0.17685087  0.69258272  0.49835643    -0.74300
Al97       Al  0.11690071  0.66087863  0.49087038     1.90100
O98         O  0.15367541  0.64337569  0.49795104    -0.73400
O99         O  0.18751273  0.69363540  0.43371828    -0.73200
O100        O  0.15702050  0.64471993  0.43137417    -0.78900
O101        O  0.16646560  0.71131904  0.42079477    -0.77100
O102        O  0.13931500  0.67056090  0.45788564    -1.13200
O103        O  0.12161917  0.70098086  0.43729928    -0.72400
C104        C  0.11585288  0.70330780  0.46748614     0.98300
C105        C  0.13315264  0.62521323  0.00255465     0.94700
Al106      Al  0.16640129  0.66873043  0.46470071     1.55600
O107        O  0.08832789  0.64485459  0.46070572    -0.77000
C108        C  0.18672737  0.71184222  0.42217668     0.98900
C109        C  0.16809921  0.68980665  0.02590734     0.93800
O110        O  0.14498755  0.67498800  0.02830848    -0.82300
O111        O  0.98732893  0.75968763  0.16241543    -0.81800
C112        C  0.02775586  0.83012060  0.06022771     0.97600
O113        O  0.01114700  0.80815863  0.05371433    -0.70900
O114        O  0.02249292  0.77794011  0.08152028    -0.74500
Al115      Al  0.99422951  0.78028954  0.08497332     1.49000
C116        C  0.03631614  0.77618973  0.10300043     0.92800
O117        O  0.04483636  0.82152593  0.16212158    -0.80700
O118        O  0.97928854  0.81533283  0.15520321    -0.74300
Al119      Al  0.01490901  0.79095676  0.15919425     1.90100
O120        O  0.02842485  0.84444025  0.15499290    -0.73400
O121        O  0.97842444  0.81860818  0.08862215    -0.73200
O122        O  0.02812810  0.83999253  0.08837283    -0.78900
O123        O  0.96358717  0.77948032  0.08301696    -0.77100
O124        O  0.00428504  0.79912522  0.12202897    -1.13200
O125        O  0.97659399  0.74947215  0.10916487    -0.72400
C126        C  0.97418849  0.74418784  0.14055369     0.98300
C127        C  0.04583235  0.84182259  0.16580935     0.94700
Al128      Al  0.00364232  0.82711698  0.12172772     1.55600
O129        O  0.03412601  0.77918388  0.13454406    -0.77000
C130        C  0.96112660  0.79798683  0.07994324     0.98900
C131        C  0.98089387  0.80772331  0.18435740     0.93800
O132        O  0.99673353  0.80096541  0.19024692    -0.82300
O133        O  0.33205668  0.85662457  0.27815409    -0.81800
C134        C  0.35639677  0.86006434  0.14432459     0.97600
O135        O  0.35752830  0.84988216  0.17151037    -0.70900
O136        O  0.36171922  0.84575954  0.23720426    -0.74500
Al137      Al  0.33490174  0.83843696  0.20725777     1.49000
C138        C  0.37963792  0.86581217  0.24667588     0.92800
O139        O  0.36458877  0.91642084  0.22573529    -0.80700
O140        O  0.30797267  0.88997511  0.20343349    -0.74300
Al141      Al  0.34751231  0.88487465  0.24801251     1.90100
O142        O  0.35333945  0.90775601  0.17243046    -0.73400
O143        O  0.29400089  0.84790976  0.17222081    -0.73200
O144        O  0.34084344  0.86739253  0.14104650    -0.78900
O145        O  0.30794649  0.82255668  0.17651374    -0.77100
O146        O  0.33568461  0.86712409  0.21015014    -1.13200
O147        O  0.31223452  0.82555372  0.24300123    -0.72400
C148        C  0.31497241  0.83486887  0.27224135     0.98300
C149        C  0.36681053  0.92253781  0.19471851     0.94700
Al150      Al  0.32486305  0.87736355  0.17527357     1.55600
O151        O  0.37784561  0.88483824  0.24579125    -0.77000
C152        C  0.29111547  0.82684604  0.16806868     0.98900
C153        C  0.30604536  0.89134546  0.23546993     0.93800
O154        O  0.31941448  0.88751705  0.25546548    -0.82300
O155        O  0.19156133  0.99609244  0.30593482    -0.81800
C156        C  0.19000646  0.02566882  0.43630367     0.97600
O157        O  0.18141637  0.02641253  0.40744576    -0.70900
O158        O  0.17843517  0.02705903  0.34059997    -0.74500
Al159      Al  0.17095167  0.00196743  0.37383694     1.49000
C160        C  0.19875978  0.04495738  0.33180843     0.92800
O161        O  0.24975697  0.03296561  0.36193595    -0.80700
O162        O  0.22428546  0.97766033  0.38840885    -0.74300
Al163      Al  0.21905359  0.01394258  0.33736944     1.90100
O164        O  0.23884044  0.02332066  0.41534685    -0.73400
O165        O  0.18030033  0.96286503  0.41361000    -0.73200
O166        O  0.19655248  0.00981632  0.44258089    -0.78900
O167        O  0.15473270  0.97639993  0.40704675    -0.77100
O168        O  0.20002662  0.00330814  0.37427946    -1.13200
O169        O  0.15931157  0.97764979  0.34017795    -0.72400
C170        C  0.16946407  0.97935777  0.31169540     0.98300
C171        C  0.25443121  0.03649437  0.39349768     0.94700
Al172      Al  0.20922519  0.99410489  0.41181264     1.55600
O173        O  0.21794178  0.04353853  0.33481364    -0.77000
C174        C  0.15904172  0.95981040  0.41683246     0.98900
C175        C  0.22720853  0.97475399  0.35715469     0.93800
O176        O  0.22316884  0.98647322  0.33458447    -0.82300
O177        O  0.46575764  0.14086068  0.47512141    -0.81800
C178        C  0.49571514  0.14171281  0.10637657     0.97600
O179        O  0.50552249  0.15008551  0.07751757    -0.70900
O180        O  0.50923478  0.15237150  0.00991493    -0.74500
Al181      Al  0.49295003  0.16155935  0.04318673     1.49000
C182        C  0.50701192  0.13305286  0.50094310     0.92800
O183        O  0.44333855  0.08381068  0.03556007    -0.80700
O184        O  0.41510939  0.11666168  0.05699596    -0.74300
Al185      Al  0.45538247  0.11349665  0.00925483     1.90100
O186        O  0.43985947  0.09527665  0.08693822    -0.73400
O187        O  0.44742494  0.15843225  0.08346230    -0.73200
O188        O  0.47352512  0.13636383  0.11232185    -0.78900
O189        O  0.48667447  0.18020642  0.07596974    -0.77100
O190        O  0.46423564  0.13371068  0.04484931    -1.13200
O191        O  0.48065357  0.17348975  0.00899978    -0.72400
C192        C  0.47061161  0.16278804  0.48063827     0.98300
C193        C  0.43873831  0.07928559  0.06690847     0.94700
Al194      Al  0.44549583  0.12719515  0.08180265     1.55600
O195        O  0.48651090  0.11417939  0.50529569    -0.77000
C196        C  0.46706637  0.17829888  0.08708889     0.98900
C197        C  0.40953062  0.11140222  0.02592231     0.93800
O198        O  0.42430736  0.11029788  0.00550017    -0.82300
O199        O  0.76370939  0.98239245  0.08747968    -0.81800
C200        C  0.83149948  0.02034633  0.19527385     0.97600
O201        O  0.80889443  0.00445281  0.19928123    -0.70900
O202        O  0.78070085  0.01822738  0.17035480    -0.74500
Al203      Al  0.78209581  0.98944554  0.16616109     1.49000
C204        C  0.77762169  0.03086866  0.14821174     0.92800
O205        O  0.82337100  0.04133384  0.09250250    -0.80700
O206        O  0.82027740  0.97755907  0.09598325    -0.74300
Al207      Al  0.79394033  0.01089002  0.09273548     1.90100
O208        O  0.84820451  0.02705095  0.10062313    -0.73400
O209        O  0.82032468  0.97327523  0.16199496    -0.73200
O210        O  0.84192461  0.02296894  0.16686687    -0.78900
O211        O  0.78090730  0.95861646  0.16654649    -0.77100
O212        O  0.80189758  0.00024344  0.13005247    -1.13200
O213        O  0.75154401  0.97322734  0.14049805    -0.72400
C214        C  0.74722538  0.97019393  0.10882600     0.98300
C215        C  0.84442201  0.04382278  0.09014400     0.94700
Al216      Al  0.83028484  0.00025743  0.13127462     1.55600
O217        O  0.77981765  0.02783771  0.11677362    -0.77000
C218        C  0.79932301  0.95580887  0.16950568     0.98900
C219        C  0.81246399  0.97923627  0.06703603     0.93800
O220        O  0.80624788  0.99536194  0.06150337    -0.82300
O221        O  0.56943419  0.88271947  0.50253266    -0.81800
C222        C  0.50372147  0.85533664  0.39369987     0.97600
O223        O  0.52618025  0.86141457  0.38944708    -0.70900
O224        O  0.55298496  0.90220190  0.42032570    -0.74500
Al225      Al  0.55252219  0.87259512  0.42325894     1.49000
C226        C  0.55488590  0.91721344  0.44266443     0.92800
O227        O  0.51093360  0.88327655  0.99831627    -0.80700
O228        O  0.51434921  0.82058458  0.49180704    -0.74300
Al229      Al  0.54066631  0.88250943  0.99879610     1.90100
O230        O  0.48508426  0.84115768  0.48729550    -0.73400
O231        O  0.51548547  0.81806166  0.42505956    -0.73200
O232        O  0.49268331  0.84540231  0.42110825    -0.78900
O233        O  0.55476450  0.84372435  0.42096145    -0.77100
O234        O  0.53211782  0.86228942  0.45887527    -1.13200
O235        O  0.58269617  0.88649260  0.45003615    -0.72400
C236        C  0.58642585  0.88730754  0.48189173     0.98300
C237        C  0.48983240  0.86486512  0.00013940     0.94700
Al238      Al  0.50426960  0.83370924  0.45643839     1.55600
O239        O  0.55240010  0.91151141  0.47394709    -0.77000
C240        C  0.53673894  0.82265699  0.41653565     0.98900
C241        C  0.52207807  0.83260356  0.02616661     0.93800
O242        O  0.52846715  0.85502576  0.03071691    -0.82300
O243        O  0.68101041  0.10601204  0.25261312    -0.81800
C244        C  0.63914124  0.13553092  0.35403157     0.97600
O245        O  0.65636230  0.13084871  0.36042662    -0.70900
O246        O  0.64744726  0.08960871  0.33422941    -0.74500
Al247      Al  0.67433348  0.12077543  0.32945783     1.49000
C248        C  0.63391048  0.07341062  0.31346481     0.92800
O249        O  0.62159298  0.10684221  0.25352944    -0.80700
O250        O  0.68544453  0.16818915  0.25653141    -0.74300
Al251      Al  0.65248463  0.10811714  0.25589153     1.90100
O252        O  0.63569147  0.14588861  0.25861227    -0.73400
O253        O  0.68682963  0.17370884  0.32316418    -0.73200
O254        O  0.63760467  0.14380020  0.32530462    -0.78900
O255        O  0.70388250  0.15143614  0.33036506    -0.77100
O256        O  0.66278136  0.12779115  0.29209627    -1.13200
O257        O  0.69333628  0.10890838  0.30555189    -0.72400
C258        C  0.69523478  0.10517835  0.27431817     0.98300
C259        C  0.61877119  0.12509710  0.24983735     0.94700
Al260      Al  0.66152041  0.15547068  0.29097614     1.55600
O261        O  0.63525993  0.07788303  0.28180566    -0.77000
C262        C  0.70484594  0.17177323  0.33287005     0.98900
C263        C  0.68455013  0.15793297  0.22845540     0.93800
O264        O  0.66885070  0.13538965  0.22339957    -0.82300
O265        O  0.44215147  0.34960163  0.33541465    -0.81800
C266        C  0.47428091  0.31278713  0.23234474     0.97600
O267        O  0.46889034  0.32970290  0.22726660    -0.70900
O268        O  0.42819009  0.32297452  0.25447465    -0.74500
Al269      Al  0.46064838  0.34848776  0.25930770     1.49000
C270        C  0.41261262  0.30649728  0.27347378     0.92800
O271        O  0.44764985  0.29285515  0.33263462    -0.80700
O272        O  0.50725453  0.35764607  0.32980310    -0.74300
Al273      Al  0.44698037  0.32281916  0.33072328     1.90100
O274        O  0.48685816  0.30890680  0.32770745    -0.73400
O275        O  0.51348165  0.35904934  0.26293714    -0.73200
O276        O  0.48297663  0.31061996  0.26052427    -0.78900
O277        O  0.49240968  0.37734627  0.25758804    -0.71700
O278        O  0.46713760  0.33512029  0.29504329    -1.13200
O279        O  0.45107474  0.36829423  0.28594362    -0.72400
C280        C  0.44437802  0.36675940  0.31670622     0.98300
C281        C  0.46669656  0.29148256  0.33720816     0.94700
Al282      Al  0.49502570  0.33412693  0.29525071     1.55600
O283        O  0.41757007  0.30463059  0.30417195    -0.77000
C284        C  0.51229471  0.37742534  0.25358936     0.98900
C285        C  0.49642471  0.35662559  0.35760197     0.93800
O286        O  0.47403023  0.34024744  0.36283815    -0.82300
O287        O  0.23894310  0.22599901  0.16676123    -0.81800
C288        C  0.16753019  0.19258687  0.06480926     0.97600
O289        O  0.18981428  0.19836380  0.05918246    -0.70900
O290        O  0.22091283  0.24062393  0.08443855    -0.74500
Al291      Al  0.21782340  0.20964697  0.09004489     1.49000
C292        C  0.22265762  0.25661828  0.10505036     0.92800
O293        O  0.17727369  0.22207212  0.16521016    -0.80700
O294        O  0.18271127  0.16245658  0.16277065    -0.74300
Al295      Al  0.20765027  0.22225545  0.16299828     1.90100
O296        O  0.15344309  0.18285207  0.16073456    -0.73400
O297        O  0.17869393  0.15597096  0.09638307    -0.73200
O298        O  0.15791942  0.18475717  0.09378816    -0.78900
O299        O  0.21785752  0.17929961  0.08968991    -0.77100
O300        O  0.19906318  0.20233530  0.12713014    -1.13200
O301        O  0.24881573  0.22274800  0.11424901    -0.72400
C302        C  0.25439446  0.22729900  0.14543183     0.98300
C303        C  0.15667038  0.20340391  0.16984727     0.94700
Al304      Al  0.17070859  0.17403459  0.12836343     1.55600
O305        O  0.21952071  0.25219023  0.13670774    -0.77000
C306        C  0.19898871  0.15862950  0.08657930     0.98900
C307        C  0.19261679  0.17325643  0.19024854     0.93800
O308        O  0.19796928  0.19538112  0.19557579    -0.82300
O309        O  0.35885001  0.44942855  0.42568070    -0.81800
C310        C  0.31265830  0.48074529  0.01416178     0.97600
O311        O  0.32691586  0.47288961  0.02385691    -0.70900
O312        O  0.31675918  0.43191713  0.50123966    -0.74500
Al313      Al  0.34564959  0.46194647  0.50026950     1.49000
C314        C  0.30540040  0.41633708  0.47857545     0.92800
O315        O  0.30086407  0.45217864  0.41597994    -0.80700
O316        O  0.36535306  0.51176909  0.42725383    -0.74300
Al317      Al  0.33075780  0.45222154  0.42376279     1.90100
O318        O  0.31571916  0.49133249  0.42193641    -0.73400
O319        O  0.36343981  0.51663878  0.49344360    -0.73200
O320        O  0.31311108  0.48899728  0.48891790    -0.78900
O321        O  0.37600222  0.48948644  0.00274299    -0.77100
O322        O  0.33854870  0.47103050  0.46077038    -1.13200
O323        O  0.36450720  0.44804149  0.48059453    -0.72400
C324        C  0.36960044  0.44585957  0.45001396     0.98300
C325        C  0.29954741  0.47110747  0.40992564     0.94700
Al326      Al  0.33930458  0.49971722  0.45819705     1.55600
O327        O  0.31092288  0.42132098  0.44741923    -0.77000
C328        C  0.38003529  0.51108072  0.00258310     0.98900
C329        C  0.36604436  0.50191750  0.39965004     0.93800
O330        O  0.34996805  0.47977729  0.39318546    -0.82300
O331        O  0.53341015  0.65363020  0.14448337    -0.81800
C332        C  0.53198620  0.68761067  0.27625925     0.97600
O333        O  0.51423734  0.67926392  0.25542340    -0.70900
O334        O  0.52595443  0.70193455  0.19725496    -0.74500
Al335      Al  0.51102520  0.66836988  0.20930593     1.49000
C336        C  0.53929332  0.71214736  0.17170083     0.92800
O337        O  0.58528452  0.70341733  0.19738090    -0.80700
O338        O  0.54928525  0.63200105  0.21940529    -0.74300
Al339      Al  0.55843793  0.67816590  0.17213592     1.90100
O340        O  0.58273146  0.67903575  0.23943080    -0.73400
O341        O  0.51628285  0.63327973  0.25954851    -0.73200
O342        O  0.54845443  0.68173735  0.27359720    -0.78900
O343        O  0.49174152  0.63490433  0.22148093    -0.77100
O344        O  0.53916457  0.66794194  0.20886332    -1.13200
O345        O  0.50252297  0.65744136  0.16321374    -0.72400
C346        C  0.51113564  0.64813709  0.14260336     0.98300
C347        C  0.59430853  0.69909831  0.22359174     0.94700
Al348      Al  0.54836095  0.65731792  0.24505302     1.55600
O349        O  0.55041343  0.70246455  0.15764820    -0.77000
C350        C  0.49544883  0.62409269  0.24576420     0.98900
C351        C  0.56227122  0.63601369  0.19301406     0.93800
O352        O  0.57085821  0.65609469  0.17717043    -0.82300
O353        O  0.66318868  0.52396044  0.11036403    -0.81800
C354        C  0.68945743  0.52176366  0.47943780     0.97600
O355        O  0.69050182  0.51322450  0.00717971    -0.70900
O356        O  0.69323373  0.51059434  0.07401342    -0.74500
Al357      Al  0.66739924  0.50262309  0.04241360     1.49000
C358        C  0.71168992  0.53076465  0.08107792     0.92800
O359        O  0.69820133  0.58093899  0.05193934    -0.80700
O360        O  0.63750685  0.55050950  0.03166844    -0.74300
Al361      Al  0.68024199  0.55094447  0.07785659     1.90100
O362        O  0.68270691  0.57026687  0.00069859    -0.73400
O363        O  0.62646346  0.50850517  0.50582954    -0.73200
O364        O  0.67345007  0.52839450  0.47449127    -0.78900
O365        O  0.64170552  0.48511793  0.01098890    -0.77100
O366        O  0.66780295  0.53118948  0.04192843    -1.13200
O367        O  0.64402873  0.49117676  0.07741518    -0.72400
C368        C  0.64573461  0.50213035  0.10515866     0.98300
C369        C  0.69799816  0.58588278  0.02073444     0.94700
Al370      Al  0.65569640  0.53881522  0.00577740     1.55600
O371        O  0.71031059  0.54995056  0.07818504    -0.77000
C372        C  0.62492608  0.48796392  0.50257631     0.98900
C373        C  0.63778037  0.55570806  0.06283520     0.93800
O374        O  0.65314241  0.55541180  0.08302559    -0.82300
O375        O  0.81210588  0.80456557  0.44290437    -0.81800
C376        C  0.81407645  0.83152654  0.31074681     0.97600
O377        O  0.82326116  0.84158359  0.33899735    -0.70900
O378        O  0.82566068  0.84716769  0.40564550    -0.74500
Al379      Al  0.83339847  0.82862575  0.37420053     1.49000
C380        C  0.80551606  0.84536783  0.41431071     0.92800
O381        O  0.75453576  0.78197661  0.38589337    -0.80700
O382        O  0.78148301  0.75133431  0.36377833    -0.74300
Al383      Al  0.78499376  0.79419328  0.41088092     1.90100
O384        O  0.76522797  0.78023926  0.33326889    -0.73400
O385        O  0.82493917  0.77991186  0.33665275    -0.73200
O386        O  0.80733762  0.80901641  0.30585929    -0.78900
O387        O  0.85018255  0.81878601  0.34274564    -0.77100
O388        O  0.80433112  0.80118343  0.37434422    -1.13200
O389        O  0.84454338  0.81654274  0.40939621    -0.72400
C390        C  0.83402117  0.80903947  0.43789581     0.98300
C391        C  0.74967208  0.77895030  0.35441616     0.94700
Al392      Al  0.79549736  0.78170267  0.33801441     1.55600
O393        O  0.78613854  0.82507974  0.41089993    -0.77000
C394        C  0.84608145  0.79805493  0.33301601     0.98900
C395        C  0.77789256  0.74657387  0.39535215     0.93800
O396        O  0.78082486  0.76278668  0.41640269    -0.82300
C397        C  0.74233271  0.63544299  0.45843712    -0.22500
C398        C  0.74061853  0.65567097  0.46961495     0.09500
C399        C  0.72596798  0.65329303  0.00047802     0.09900
C400        C  0.71400354  0.63080946  0.01818397    -0.17400
C401        C  0.71518366  0.61035236  0.00647278    -0.27800
C402        C  0.73013526  0.61287749  0.47575096     0.18200
C403        C  0.75148056  0.67822802  0.44817095     0.12200
C404        C  0.72314816  0.67447172  0.01263788    -0.12200
H405        H  0.70256541  0.62879238  0.04002006     0.12500
C406        C  0.73220331  0.59153013  0.46234168    -0.23000
H407        H  0.75263648  0.63713242  0.43544513     0.08100
C408        C  0.77572154  0.69754816  0.45315197     0.04500
C409        C  0.78442133  0.71915417  0.43378678    -0.20200
C410        C  0.76962268  0.72173260  0.40904397    -0.12500
C411        C  0.74566272  0.70192190  0.40308670     0.13200
C412        C  0.73696565  0.68040718  0.42267077    -0.23000
C413        C  0.79221959  0.69548219  0.47924830    -0.06000
H414        H  0.80265015  0.73446135  0.43868263     0.14700
C415        C  0.72828459  0.70321888  0.37769382    -0.16200
H416        H  0.71840611  0.66544728  0.41870747     0.09000
H417        H  0.74496508  0.59687943  0.44028533     0.06900
H418        H  0.71399409  0.57673338  0.45370676     0.08100
H419        H  0.73928132  0.58440779  0.48272019     0.07100
H420        H  0.71434153  0.67987304  0.99244964     0.02000
H421        H  0.74142017  0.69036472  0.01870053     0.02500
H422        H  0.71157521  0.66967312  0.03592533     0.06000
H423        H  0.81062674  0.71224009  0.47992401     0.05000
H424        H  0.79475163  0.67966744  0.47298892    -0.00800
H425        H  0.78388521  0.69269026  0.50497833     0.00700
H426        H  0.72280430  0.68840516  0.35859379     0.04300
H427        H  0.73633159  0.72087683  0.36379618     0.06300
H428        H  0.71156663  0.70063658  0.39111686     0.07100
C429        C  0.65983201  0.72700083  0.25326159    -0.22500
C430        C  0.65998064  0.74214887  0.27954777     0.09500
C431        C  0.63960072  0.74566541  0.28379730     0.09900
C432        C  0.61911948  0.73323690  0.26229721    -0.17400
C433        C  0.61847525  0.71709350  0.23715719    -0.27800
C434        C  0.63920416  0.71419316  0.23224698     0.18200
C435        C  0.68140607  0.75330677  0.30289872     0.12200
C436        C  0.63907353  0.76166241  0.31188316    -0.12200
H437        H  0.60292539  0.73489617  0.26652851     0.12500
C438        C  0.63974533  0.69702796  0.20595896    -0.23000
H439        H  0.67557413  0.72443671  0.24997014     0.08100
C440        C  0.68312057  0.74023506  0.33113726     0.04500
C441        C  0.70498575  0.75035424  0.35020869    -0.20200
C442        C  0.72532305  0.77289319  0.34099929    -0.12500
C443        C  0.72313708  0.78645080  0.31364805     0.13200
C444        C  0.70115681  0.77650696  0.29504021    -0.23000
C445        C  0.66228063  0.71515013  0.34013776    -0.06000
H446        H  0.70682386  0.73983331  0.37077085     0.14700
C447        C  0.74385034  0.81122918  0.30297202    -0.16200
H448        H  0.69973315  0.78653945  0.27346496     0.09000
H449        H  0.64196818  0.68250536  0.21884190     0.06900
H450        H  0.65552568  0.70740990  0.18845778     0.08100
H451        H  0.62281789  0.68808808  0.19027344     0.07100
H452        H  0.65452330  0.78066351  0.30853553     0.02000
H453        H  0.64087487  0.75451135  0.33697887     0.02500
H454        H  0.62161767  0.76218063  0.31192202     0.06000
H455        H  0.66665523  0.70739901  0.36279999     0.05000
H456        H  0.65848150  0.70245161  0.31844789    -0.00800
H457        H  0.64550300  0.71621632  0.34585721     0.00700
H458        H  0.74968648  0.81018648  0.27660802     0.04300
H459        H  0.76005646  0.81813095  0.31997984     0.06300
H460        H  0.73744002  0.82480826  0.30354467     0.07100
C461        C  0.60702433  0.59223888  0.08756032    -0.22500
C462        C  0.59491574  0.57989101  0.11752035     0.09500
C463        C  0.59426694  0.55787412  0.12647394     0.09900
C464        C  0.60682474  0.54932975  0.10613661    -0.17400
C465        C  0.62019288  0.56240288  0.07720863    -0.27800
C466        C  0.61995609  0.58396036  0.06742315     0.18200
C467        C  0.58553433  0.59185868  0.14091664     0.12200
C468        C  0.58130427  0.54406417  0.15831080    -0.12200
H469        H  0.60730315  0.53298398  0.11383933     0.12500
C470        C  0.63446696  0.59966919  0.03759089    -0.23000
H471        H  0.60756362  0.60925847  0.08092007     0.08100
C472        C  0.60165016  0.61059078  0.16319391     0.04500
C473        C  0.59286608  0.62343060  0.18229923    -0.20200
C474        C  0.56831993  0.61778903  0.17995006    -0.12500
C475        C  0.55173897  0.59795439  0.15940475     0.13200
C476        C  0.56061463  0.58521473  0.14000316    -0.23000
C477        C  0.62826609  0.61742144  0.16619682    -0.06000
H478        H  0.60546859  0.63870918  0.19800665     0.14700
C479        C  0.52491708  0.59040398  0.15639578    -0.16200
H480        H  0.54821956  0.57055791  0.12327087     0.09000
H481        H  0.64791873  0.61830965  0.04674624     0.06900
H482        H  0.62177060  0.60115253  0.01926123     0.08100
H483        H  0.64485558  0.59243633  0.02371237     0.07100
H484        H  0.56151668  0.53845871  0.15681278     0.02000
H485        H  0.58952567  0.55592527  0.18096433     0.02500
H486        H  0.58277317  0.52729714  0.16177023     0.06000
H487        H  0.63819623  0.63226841  0.18509175     0.05000
H488        H  0.63758727  0.62390456  0.14119707    -0.00800
H489        H  0.62955010  0.60120596  0.17451601     0.00700
H490        H  0.52041534  0.59181177  0.12943000     0.04300
H491        H  0.51974604  0.60177888  0.17208874     0.06300
H492        H  0.51353133  0.57107325  0.16484925     0.07100
C493        C  0.42492195  0.55219256  0.35896862    -0.22500
C494        C  0.42030924  0.54605591  0.32451885     0.09500
C495        C  0.39903854  0.52429517  0.31484606     0.09900
C496        C  0.38182044  0.50993747  0.33991634    -0.17400
C497        C  0.38560184  0.51679051  0.37446843    -0.27800
C498        C  0.40803442  0.53784569  0.38419211     0.18200
C499        C  0.43763889  0.56364817  0.29930618     0.12200
C500        C  0.39464460  0.51627347  0.27816422    -0.12200
H501        H  0.36510807  0.49357190  0.33234003     0.12500
C502        C  0.41473132  0.54543000  0.42090596    -0.23000
H503        H  0.44167819  0.56873965  0.36604254     0.08100
C504        C  0.43388185  0.58226364  0.28547265     0.04500
C505        C  0.45246857  0.60083490  0.26569779    -0.20200
C506        C  0.47485862  0.60141498  0.26004210    -0.12500
C507        C  0.47787912  0.58180422  0.27204701     0.13200
C508        C  0.45935314  0.56337096  0.29205284    -0.23000
C509        C  0.41082638  0.58325007  0.29311382    -0.06000
H510        H  0.45010647  0.61579042  0.25643692     0.14700
C511        C  0.50012239  0.57949547  0.26388655    -0.16200
H512        H  0.46200671  0.54886984  0.30251173     0.09000
H513        H  0.40237968  0.55158010  0.43177589     0.06900
H514        H  0.43380797  0.56097621  0.42344383     0.08100
H515        H  0.41346024  0.52987624  0.43601195     0.07100
H516        H  0.40995448  0.51370463  0.26893872     0.02000
H517        H  0.39367656  0.53032432  0.26214961     0.02500
H518        H  0.37719801  0.49868798  0.27496589     0.06000
H519        H  0.41100225  0.59920731  0.28063378     0.05000
H520        H  0.40907194  0.58479756  0.32103136    -0.00800
H521        H  0.39448717  0.56638163  0.28378793     0.00700
H522        H  0.51066164  0.58150658  0.28755859     0.04300
H523        H  0.51237399  0.59311544  0.24489169     0.06300
H524        H  0.49412113  0.56115593  0.25276502     0.07100
C525        C  0.43301086  0.54666065  0.06496716    -0.22500
C526        C  0.44137330  0.57079323  0.05426259     0.09500
C527        C  0.43090226  0.57515774  0.02517655     0.09900
C528        C  0.41142921  0.55528742  0.00833361    -0.17400
C529        C  0.40221838  0.53101951  0.01970599    -0.27800
C530        C  0.41365174  0.52667847  0.04809689     0.18200
C531        C  0.45934361  0.59121397  0.07590306     0.12200
C532        C  0.43990684  0.60086171  0.01250734    -0.12200
H533        H  0.40307757  0.55880386  0.98643069     0.12500
C534        C  0.41055628  0.50330622  0.55747030    -0.23000
H535        H  0.44121252  0.54354370  0.08740700     0.08100
C536        C  0.45138925  0.59878692  0.10461807     0.04500
C537        C  0.46872395  0.61778350  0.12500328    -0.20200
C538        C  0.49407262  0.62949683  0.11773935    -0.12500
C539        C  0.50200786  0.62201079  0.08851715     0.13200
C540        C  0.48446624  0.60297144  0.06796245    -0.23000
C541        C  0.42451869  0.58670550  0.11386774    -0.06000
H542        H  0.46232568  0.62306586  0.14734633     0.14700
C543        C  0.52870352  0.63407406  0.07833882    -0.16200
H544        H  0.49034017  0.59706657  0.04572107     0.09000
H545        H  0.38529638  0.49251764  0.06905568     0.06900
H546        H  0.42317469  0.50375571  0.57770378     0.08100
H547        H  0.41255698  0.49346588  0.53534532     0.07100
H548        H  0.45970804  0.60956179  0.00585784     0.02000
H549        H  0.43742080  0.61181934  0.03263685     0.02500
H550        H  0.42974761  0.60112406  0.98946192     0.06000
H551        H  0.42139695  0.59498139  0.13695995     0.05000
H552        H  0.41728262  0.56692709  0.11906167    -0.00800
H553        H  0.41403999  0.58873151  0.09250806     0.00700
H554        H  0.53944497  0.63071442  0.09794852     0.04300
H555        H  0.53620329  0.65409532  0.07513024     0.06300
H556        H  0.53121052  0.62675483  0.05385927     0.07100
C557        C  0.22546109  0.30550898  0.04568864    -0.22500
C558        C  0.24956268  0.32444377  0.05138744     0.09500
C559        C  0.26320609  0.32232165  0.07858613     0.09900
C560        C  0.25302217  0.30060871  0.09801678    -0.17400
C561        C  0.22951576  0.28099994  0.09085522    -0.27800
C562        C  0.21524574  0.28381678  0.06509353     0.18200
C563        C  0.26045074  0.34614054  0.02827445     0.12200
C564        C  0.28871584  0.34278594  0.08663203    -0.12200
H565        H  0.26398306  0.29839383  0.11756592     0.12500
C566        C  0.18921363  0.26427418  0.05739121    -0.23000
H567        H  0.21478282  0.30739459  0.02539626     0.08100
C568        C  0.27558903  0.34788228  0.00045163     0.04500
C569        C  0.28823555  0.37134016  0.48067647    -0.20200
C570        C  0.28636145  0.39180435  0.49031184    -0.12500
C571        C  0.26850243  0.38764294  0.01634769     0.13200
C572        C  0.25641768  0.36571285  0.03510856    -0.23000
C573        C  0.27921207  0.32668212  0.99103591    -0.06000
H574        H  0.30044165  0.37306564  0.45996770     0.14700
C575        C  0.26310396  0.40784359  0.02513567    -0.16200
H576        H  0.24426314  0.36412200  0.05586835     0.09000
H577        H  0.18784119  0.25846509  0.03043999     0.06900
H578        H  0.17672648  0.27183999  0.06122686     0.08100
H579        H  0.18265455  0.24790437  0.07400524     0.07100
H580        H  0.28805347  0.35965148  0.09290925     0.02000
H581        H  0.30100694  0.34651393  0.06438188     0.02500
H582        H  0.29678685  0.33818877  0.10870880     0.06000
H583        H  0.29017233  0.33182763  0.46540837     0.05000
H584        H  0.26040819  0.31185856  0.48362097    -0.00800
H585        H  0.28744674  0.32190078  0.01267450     0.00700
H586        H  0.24301741  0.40080712  0.02319898     0.04300
H587        H  0.27230270  0.42381337  0.00772032     0.06300
H588        H  0.26911066  0.41414593  0.05162918     0.07100
C589        C  0.52433042  0.39016210  0.44100738    -0.22500
C590        C  0.54234828  0.41295661  0.42823721     0.09500
C591        C  0.54382252  0.41759874  0.39292867     0.09900
C592        C  0.52778924  0.39903894  0.37099662    -0.17400
C593        C  0.51048290  0.37572617  0.38332621    -0.27800
C594        C  0.50819803  0.37141571  0.41891474     0.18200
C595        C  0.56174869  0.43060553  0.45118538     0.12200
C596        C  0.56297506  0.44184664  0.37821799    -0.12200
H597        H  0.52922886  0.40260254  0.34379282     0.12500
C598        C  0.48975698  0.34692053  0.43360881    -0.23000
H599        H  0.52351926  0.38678054  0.46821195     0.08100
C600        C  0.56053388  0.45023806  0.46637311     0.04500
C601        C  0.58115211  0.46830116  0.48388174    -0.20200
C602        C  0.60301400  0.46721540  0.48632661    -0.12500
C603        C  0.60374058  0.44689424  0.47169853     0.13200
C604        C  0.58302152  0.42888526  0.45457521    -0.23000
C605        C  0.53763947  0.45224415  0.46360108    -0.06000
H606        H  0.58029601  0.48355411  0.49521314     0.14700
C607        C  0.62640313  0.44427303  0.47243240    -0.16200
H608        H  0.58368202  0.41373475  0.44248019     0.09000
H609        H  0.47084232  0.34296155  0.42753774     0.06900
H610        H  0.49130493  0.34653426  0.46177931     0.08100
H611        H  0.49279332  0.33232415  0.42285514     0.07100
H612        H  0.58164782  0.44518802  0.38456029     0.02000
H613        H  0.56061965  0.45687669  0.38886863     0.02500
H614        H  0.56158260  0.44232495  0.35002864     0.06000
H615        H  0.53969271  0.46869000  0.47701533     0.05000
H616        H  0.52189490  0.43577934  0.47511743    -0.00800
H617        H  0.53348644  0.45355245  0.43643134     0.00700
H618        H  0.63106515  0.44235711  0.49913406     0.04300
H619        H  0.64204152  0.46045564  0.46020760     0.06300
H620        H  0.62365139  0.42776952  0.45841502     0.07100
C621        C  0.58436021  0.45967969  0.14645711    -0.22500
C622        C  0.59149451  0.45787082  0.17964586     0.09500
C623        C  0.61634716  0.47258341  0.18936551     0.09900
C624        C  0.63372232  0.48802832  0.16506071    -0.17400
C625        C  0.62669400  0.48890085  0.13135481    -0.27800
C626        C  0.60146540  0.47537327  0.12240728     0.18200
C627        C  0.57278524  0.43886260  0.20242031     0.12200
C628        C  0.62450486  0.47175663  0.22518625    -0.12200
H629        H  0.65296660  0.49865294  0.17200337     0.12500
C630        C  0.59174352  0.47730570  0.08799426    -0.23000
H631        H  0.56522871  0.44854719  0.13914975     0.08100
C632        C  0.55326138  0.44107241  0.21641993     0.04500
C633        C  0.53417307  0.42101253  0.23372913    -0.20200
C634        C  0.53400708  0.39863483  0.23723398    -0.12500
C635        C  0.55421788  0.39686651  0.22392197     0.13200
C636        C  0.57320460  0.41700384  0.20678009    -0.23000
C637        C  0.55256426  0.46457990  0.21294715    -0.06000
H638        H  0.51909982  0.42275013  0.24411995     0.14700
C639        C  0.55583764  0.37374425  0.22629633    -0.16200
H640        H  0.58818726  0.41545351  0.19558112     0.09000
H641        H  0.57670894  0.48159022  0.09154833     0.06900
H642        H  0.58433369  0.45959128  0.07430796     0.08100
H643        H  0.60572965  0.49210756  0.07179285     0.07100
H644        H  0.62099885  0.45304417  0.23124067     0.02000
H645        H  0.61418345  0.47678051  0.24338014     0.02500
H646        H  0.64444579  0.48473320  0.22868949     0.06000
H647        H  0.53635423  0.46347885  0.22608161     0.05000
H648        H  0.55158992  0.46866774  0.18564760    -0.00800
H649        H  0.56940315  0.47987794  0.22436392     0.00700
H650        H  0.57253692  0.37573731  0.21348859     0.04300
H651        H  0.53966914  0.35837598  0.21374109     0.06300
H652        H  0.55677991  0.36920978  0.25341620     0.07100
C653        C  0.34464469  0.27290937  0.25050491    -0.22500
C654        C  0.34527973  0.26262461  0.21901862     0.09500
C655        C  0.36759824  0.26472200  0.20768438     0.09900
C656        C  0.38892917  0.27790626  0.22737097    -0.17400
C657        C  0.38858954  0.28917481  0.25813193    -0.27800
C658        C  0.36603300  0.28632933  0.27013376     0.18200
C659        C  0.32285219  0.25158201  0.19724865     0.12200
C660        C  0.36898764  0.25331272  0.17464515    -0.12200
H661        H  0.40623586  0.28015905  0.21812733     0.12500
C662        C  0.36398004  0.29840828  0.30214473    -0.23000
H663        H  0.32752344  0.27141967  0.25907782     0.08100
C664        C  0.30202231  0.22887018  0.20534230     0.04500
C665        C  0.28048497  0.22055987  0.18595417    -0.20200
C666        C  0.27915538  0.23438455  0.15863424    -0.12500
C667        C  0.30027686  0.25684237  0.14992272     0.13200
C668        C  0.32188595  0.26500493  0.16918696    -0.23000
C669        C  0.30237921  0.21357492  0.23470956    -0.06000
H670        H  0.26416783  0.20359767  0.19307672     0.14700
C671        C  0.30034248  0.27345734  0.12210352    -0.16200
H672        H  0.33783789  0.28256640  0.16317735     0.09000
H673        H  0.35111618  0.28414530  0.32016211     0.06900
H674        H  0.35667155  0.31078166  0.29568520     0.08100
H675        H  0.38172527  0.30952655  0.31536140     0.07100
H676        H  0.36414240  0.26149891  0.15300769     0.02000
H677        H  0.35598566  0.23326823  0.17541958     0.02500
H678        H  0.38773759  0.25624199  0.16995334     0.06000
H679        H  0.28467961  0.19611237  0.23713272     0.05000
H680        H  0.30567204  0.22379183  0.25895054    -0.00800
H681        H  0.31722799  0.20908031  0.23075908     0.00700
H682        H  0.30484287  0.29145211  0.13317271     0.04300
H683        H  0.28249007  0.26609370  0.10882288     0.06300
H684        H  0.31452385  0.27637974  0.10284312     0.07100
C685        C  0.39529630  0.40577389  0.42268097    -0.22500
C686        C  0.41380503  0.42177174  0.40020644     0.09500
C687        C  0.42050360  0.44674864  0.39959957     0.09900
C688        C  0.40753956  0.45484604  0.42002734    -0.17400
C689        C  0.38783388  0.43851477  0.44075973    -0.27800
C690        C  0.38210435  0.41376913  0.44283758     0.18200
C691        C  0.42459837  0.41143510  0.37611195     0.12200
C692        C  0.44048674  0.46456897  0.37621361    -0.12200
H693        H  0.41156600  0.47369631  0.41786483     0.12500
C694        C  0.36113261  0.39496755  0.46409671    -0.23000
H695        H  0.39029644  0.38659615  0.42327440     0.08100
C696        C  0.44449633  0.40823654  0.38559913     0.04500
C697        C  0.45181133  0.39530651  0.36388423    -0.20200
C698        C  0.43959003  0.38522784  0.33294932    -0.12500
C699        C  0.42032323  0.38939412  0.32271747     0.13200
C700        C  0.41324417  0.40265892  0.34435515    -0.23000
C701        C  0.45740601  0.41767417  0.41918742    -0.06000
H702        H  0.46644488  0.39194479  0.37191391     0.14700
C703        C  0.40576460  0.37884701  0.29052038    -0.16200
H704        H  0.39791521  0.40514299  0.33714815     0.09000
H705        H  0.36818708  0.38636184  0.48227514     0.06900
H706        H  0.34728069  0.38053253  0.44726857     0.08100
H707        H  0.35178688  0.40285447  0.47910137     0.07100
H708        H  0.43553354  0.45870509  0.34934015     0.02000
H709        H  0.45807750  0.46522744  0.38237742     0.02500
H710        H  0.44331588  0.48339382  0.37874568     0.06000
H711        H  0.47254308  0.41351981  0.42274007     0.05000
H712        H  0.44413973  0.40903894  0.44045813    -0.00800
H713        H  0.46539903  0.43784965  0.42039711     0.00700
H714        H  0.38611316  0.36657779  0.29705450     0.04300
H715        H  0.41198814  0.36805151  0.27553889     0.06300
H716        H  0.40733351  0.39396492  0.27409198     0.07100
C717        C  0.59015422  0.98503395  0.42304164    -0.22500
C718        C  0.57898008  0.98531097  0.39208147     0.09500
C719        C  0.55752745  0.96409588  0.38140494     0.09900
C720        C  0.54859168  0.94262087  0.40076806    -0.17400
C721        C  0.56074317  0.94172058  0.43038344    -0.27800
C722        C  0.58126245  0.96336956  0.44238791     0.18200
C723        C  0.59096910  0.00733534  0.36992366     0.12200
C724        C  0.54445996  0.96390976  0.34906034    -0.12200
H725        H  0.53284414  0.92596204  0.39157909     0.12500
C726        C  0.59471898  0.96325538  0.47413518    -0.23000
H727        H  0.60656425  0.00148734  0.43116740     0.08100
C728        C  0.58992918  0.02867689  0.37738319     0.04500
C729        C  0.60258505  0.04933547  0.35639768    -0.20200
C730        C  0.61641352  0.04927505  0.32817432    -0.12500
C731        C  0.61668903  0.02750910  0.32000448     0.13200
C732        C  0.60384262  0.00679617  0.34096944    -0.23000
C733        C  0.57574828  0.02974767  0.40768052    -0.06000
H734        H  0.60259817  0.06608873  0.36294595     0.14700
C735        C  0.63128344  0.02563862  0.29085799    -0.16200
H736        H  0.60450112  0.99025597  0.33530289     0.09000
H737        H  0.61065118  0.98165603  0.47950568     0.06900
H738        H  0.60166599  0.95019646  0.47116339     0.08100
H739        H  0.58207509  0.95767093  0.49634040     0.07100
H740        H  0.55674993  0.96767984  0.32678677     0.02000
H741        H  0.53894993  0.97815247  0.35046793     0.02500
H742        H  0.52764743  0.94591035  0.34488638     0.06000
H743        H  0.57649913  0.04773479  0.40947495     0.05000
H744        H  0.58354056  0.02690619  0.43152874    -0.00800
H745        H  0.55617910  0.01524102  0.40548644     0.00700
H746        H  0.64431988  0.02004652  0.30088150     0.04300
H747        H  0.64200646  0.04298780  0.27661390     0.06300
H748        H  0.61861283  0.01144008  0.27272119     0.07100
C749        C  0.55443429  0.76789947  0.11548602    -0.22500
C750        C  0.53597634  0.77290183  0.12567895     0.09500
C751        C  0.52051700  0.75979514  0.15313478     0.09900
C752        C  0.52308795  0.74111081  0.16879427    -0.17400
C753        C  0.54038889  0.73466479  0.15713783    -0.27800
C754        C  0.55685262  0.74891423  0.13064657     0.18200
C755        C  0.53075995  0.78900749  0.10375313     0.12200
C756        C  0.50085780  0.76511308  0.16528983    -0.12200
H757        H  0.51061872  0.73073914  0.18927849     0.12500
C758        C  0.57670655  0.74417720  0.11748328    -0.23000
H759        H  0.56619690  0.77811577  0.09426979     0.08100
C760        C  0.54474535  0.81479054  0.10500461     0.04500
C761        C  0.54030008  0.82873949  0.08088722    -0.20200
C762        C  0.52290035  0.81740201  0.05471761    -0.12500
C763        C  0.50780784  0.79148808  0.05512361     0.13200
C764        C  0.51199872  0.77775115  0.07964091    -0.23000
C765        C  0.56451675  0.82745296  0.13139062    -0.06000
H766        H  0.55126490  0.84856531  0.08160249     0.14700
C767        C  0.48701396  0.77797433  0.03022269    -0.16200
H768        H  0.50104718  0.75789484  0.07935559     0.09000
H769        H  0.58853171  0.75803956  0.09823583     0.06900
H770        H  0.56836985  0.72599521  0.10493291     0.08100
H771        H  0.58870645  0.74496149  0.13882831     0.07100
H772        H  0.48752117  0.76164134  0.14449056     0.02000
H773        H  0.50939455  0.78457448  0.17324691     0.02500
H774        H  0.49054405  0.75341495  0.18736656     0.06000
H775        H  0.57366244  0.84771381  0.12896674     0.05000
H776        H  0.57872616  0.82197027  0.12839287    -0.00800
H777        H  0.55635829  0.82223363  0.15727831     0.00700
H778        H  0.50885590  0.77948800  0.49185641     0.04300
H779        H  0.48137969  0.77697573  0.51154309     0.06300
H780        H  0.47570431  0.75824842  0.03690228     0.07100
C781        C  0.55582926  0.78759418  0.35649355    -0.22500
C782        C  0.54043243  0.76352183  0.36779826     0.09500
C783        C  0.52551783  0.75919195  0.39672519     0.09900
C784        C  0.52531834  0.77899694  0.41269296    -0.17400
C785        C  0.54000669  0.80309672  0.40078677    -0.27800
C786        C  0.55582351  0.80751866  0.37260754     0.18200
C787        C  0.53751841  0.74308110  0.34602882     0.12200
C788        C  0.50929024  0.73359580  0.41008585    -0.12200
H789        H  0.51313081  0.77555768  0.43402475     0.12500
C790        C  0.57147006  0.83284948  0.35795352    -0.23000
H791        H  0.56700023  0.79063658  0.33396598     0.08100
C792        C  0.52019044  0.73451140  0.31942143     0.04500
C793        C  0.51840565  0.71589130  0.29816646    -0.20200
C794        C  0.53364813  0.70552752  0.30248168    -0.12500
C795        C  0.55062473  0.71374919  0.33004766     0.13200
C796        C  0.55229247  0.73247700  0.35144259    -0.23000
C797        C  0.50377049  0.74531446  0.31312183    -0.06000
H798        H  0.50533599  0.70992507  0.27733648     0.14700
C799        C  0.56690467  0.70297347  0.33748497    -0.16200
H800        H  0.56538024  0.73912329  0.37228376     0.09000
H801        H  0.55967117  0.84066539  0.35055141     0.06900
H802        H  0.58165770  0.83263327  0.33491758     0.08100
H803        H  0.58521797  0.84488624  0.37704658     0.07100
H804        H  0.52076273  0.72536084  0.41719058     0.02000
H805        H  0.49590842  0.72211776  0.39024123     0.02500
H806        H  0.49881831  0.73345852  0.43299793     0.06000
H807        H  0.49123174  0.73649206  0.29120560     0.05000
H808        H  0.51512431  0.76518991  0.30748396    -0.00800
H809        H  0.49232038  0.74276283  0.33599939     0.00700
H810        H  0.58006386  0.70700449  0.31627224     0.04300
H811        H  0.55547248  0.68285143  0.34113878     0.06300
H812        H  0.57789135  0.71077222  0.36102618     0.07100
C813        C  0.79656019  0.93961956  0.48185178    -0.22500
C814        C  0.80424039  0.92338608  0.99608152     0.09500
C815        C  0.81768107  0.92757014  0.02644348     0.09900
C816        C  0.82055240  0.94638150  0.04812449    -0.17400
C817        C  0.81051672  0.96151197  0.04034086    -0.27800
C818        C  0.79789209  0.95792688  0.00893026     0.18200
C819        C  0.80331802  0.90453755  0.46743463     0.12200
C820        C  0.82916735  0.91222456  0.03595863    -0.12200
H821        H  0.83066001  0.94905022  0.07162068     0.12500
C822        C  0.78763464  0.97401411  0.99780563    -0.23000
H823        H  0.78817163  0.93740645  0.45701948     0.08100
C824        C  0.78308938  0.88051054  0.46843060     0.04500
C825        C  0.78393048  0.86189792  0.44969241    -0.20200
C826        C  0.80476071  0.86656149  0.43034674    -0.12500
C827        C  0.82463444  0.89108777  0.42830881     0.13200
C828        C  0.82350254  0.90965992  0.44674382    -0.23000
C829        C  0.76095628  0.87441974  0.49014964    -0.06000
H830        H  0.76853649  0.84335368  0.45134790     0.14700
C831        C  0.84727605  0.89809311  0.40716234    -0.16200
H832        H  0.83319312  0.92815703  0.94405389     0.09000
H833        H  0.77368983  0.97242910  0.50952039     0.06900
H834        H  0.78098936  0.96981008  0.46616793     0.08100
H835        H  0.80273694  0.99330567  0.99567489     0.07100
H836        H  0.84244721  0.91393062  0.01594862     0.02000
H837        H  0.81475331  0.89270043  0.03849743     0.02500
H838        H  0.83921240  0.91808292  0.06055065     0.06000
H839        H  0.74671776  0.85476877  0.48814944     0.05000
H840        H  0.75266619  0.88559669  0.48183936    -0.00800
H841        H  0.76647123  0.87843636  0.51729900     0.00700
H842        H  0.84195615  0.89222493  0.38036208     0.04300
H843        H  0.85760033  0.88949702  0.41778356     0.06300
H844        H  0.85095540  0.91827443  0.89975928     0.07100
C845        C  0.77862333  0.89637552  0.21927568    -0.22500
C846        C  0.79908372  0.89327844  0.21476289     0.09500
C847        C  0.81767161  0.90848978  0.19166509     0.09900
C848        C  0.81644827  0.92788273  0.17585810    -0.17400
C849        C  0.79705894  0.93251163  0.18261004    -0.27800
C850        C  0.77728445  0.91577585  0.20350431     0.18200
C851        C  0.80274318  0.87709447  0.23869583     0.12200
C852        C  0.83933239  0.90491149  0.18489800    -0.12200
H853        H  0.83126365  0.94005306  0.15903531     0.12500
C854        C  0.75532503  0.91875766  0.21086839    -0.23000
H855        H  0.76432698  0.88438539  0.23692111     0.08100
C856        C  0.81094304  0.88507718  0.27212518     0.04500
C857        C  0.81481746  0.86990817  0.29424977    -0.20200
C858        C  0.81071208  0.84667366  0.28419508    -0.12500
C859        C  0.80263380  0.83873906  0.25033796     0.13200
C860        C  0.79883121  0.85416415  0.22801837    -0.23000
C861        C  0.81587404  0.90981998  0.28451808    -0.06000
H862        H  0.82084184  0.87635259  0.31998363     0.14700
C863        C  0.79799887  0.81428528  0.23732066    -0.16200
H864        H  0.79269142  0.84831934  0.20211286     0.09000
H865        H  0.76132896  0.93665942  0.22340438     0.06900
H866        H  0.74200561  0.90416958  0.22814553     0.08100
H867        H  0.74553290  0.91764258  0.18677419     0.07100
H868        H  0.83281230  0.88635425  0.17421558     0.02000
H869        H  0.84942678  0.90682488  0.20898177     0.02500
H870        H  0.85236102  0.91856636  0.16635554     0.06000
H871        H  0.82284078  0.91342599  0.31112523     0.05000
H872        H  0.79868135  0.91078040  0.28388100    -0.00800
H873        H  0.82988624  0.92446941  0.26801552     0.00700
H874        H  0.78279252  0.79925497  0.25191414     0.04300
H875        H  0.81495788  0.81298321  0.23977596     0.06300
H876        H  0.79259308  0.81165625  0.21002574     0.07100
C877        C  0.74080347  0.06147569  0.17202309    -0.22500
C878        C  0.75451445  0.07551175  0.19995108     0.09500
C879        C  0.77757249  0.07777724  0.20695227     0.09900
C880        C  0.78567023  0.06458427  0.18719333    -0.17400
C881        C  0.77117969  0.04909418  0.16067907    -0.27800
C882        C  0.74874997  0.04811515  0.15228528     0.18200
C883        C  0.74318386  0.08579812  0.22295365     0.12200
C884        C  0.79322508  0.09349208  0.23585102    -0.12200
H885        H  0.80284052  0.06531869  0.19362851     0.12500
C886        C  0.73185524  0.03206230  0.12446752    -0.23000
H887        H  0.72315388  0.05997912  0.16663257     0.08100
C888        C  0.74358889  0.10788085  0.21528345     0.04500
C889        C  0.72926797  0.11477143  0.23480348    -0.20200
C890        C  0.71426546  0.09991349  0.26151818    -0.12500
C891        C  0.71467789  0.07824647  0.27006320     0.13200
C892        C  0.72946106  0.07168826  0.25092631    -0.23000
C893        C  0.75841525  0.12366807  0.18576987    -0.06000
H894        H  0.72872934  0.13123109  0.22801670     0.14700
C895        C  0.69851001  0.06063612  0.29721610    -0.16200
H896        H  0.72912335  0.05462701  0.25656844     0.09000
H897        H  0.72901375  0.04363162  0.10563285     0.06900
H898        H  0.71379875  0.01871041  0.13565337     0.08100
H899        H  0.73888130  0.02153373  0.11058531     0.07100
H900        H  0.78339339  0.08641278  0.26041484     0.02000
H901        H  0.79727077  0.11264476  0.23211799     0.02500
H902        H  0.81100604  0.09369166  0.23725365     0.06000
H903        H  0.75668609  0.14034913  0.18326637     0.05000
H904        H  0.75196958  0.11316536  0.16165605    -0.00800
H905        H  0.77812789  0.12954906  0.18954215     0.00700
H906        H  0.68670905  0.04238355  0.28556260     0.04300
H907        H  0.68637809  0.06634466  0.30982527     0.06300
H908        H  0.71014611  0.05883849  0.31704722     0.07100
C909        C  0.69740034  0.92460205  0.05090969    -0.22500
C910        C  0.67892168  0.93060711  0.05614246     0.09500
C911        C  0.68150408  0.94678611  0.08287013     0.09900
C912        C  0.70337880  0.95802041  0.10201276    -0.17400
C913        C  0.72252770  0.95318266  0.09527227    -0.27800
C914        C  0.71911822  0.93558973  0.07020014     0.18200
C915        C  0.65680593  0.91924975  0.03385409     0.12200
C916        C  0.66123598  0.95222200  0.09116296    -0.12200
H917        H  0.70603630  0.97154152  0.12112433     0.12500
C918        C  0.73802563  0.92797174  0.06319308    -0.23000
H919        H  0.69504240  0.91155071  0.03121145     0.08100
C920        C  0.65370705  0.92714962  0.50387537     0.04500
C921        C  0.63148843  0.91656845  0.48542272    -0.20200
C922        C  0.61097491  0.89473030  0.49652105    -0.12500
C923        C  0.61647667  0.88402477  0.02177825     0.13200
C924        C  0.63841188  0.89514052  0.04061230    -0.23000
C925        C  0.67519581  0.95091765  0.49183901    -0.06000
H926        H  0.62971319  0.92606303  0.46348147     0.14700
C927        C  0.59742673  0.85788520  0.02964611    -0.16200
H928        H  0.64104510  0.88515581  0.06124033     0.09000
H929        H  0.74419944  0.93210976  0.03629220     0.06900
H930        H  0.72964144  0.90792285  0.06736814     0.08100
H931        H  0.75434508  0.93717987  0.08000248     0.07100
H932        H  0.64431320  0.93495653  0.09809311     0.02000
H933        H  0.65728403  0.96059148  0.06889992     0.02500
H934        H  0.66621486  0.96510103  0.11292320     0.06000
H935        H  0.67087826  0.95753536  0.46796900     0.05000
H936        H  0.69116403  0.94828640  0.48685148    -0.00800
H937        H  0.68030936  0.96524390  0.51159412     0.00700
H938        H  0.59345743  0.84656070  0.00634053     0.04300
H939        H  0.58029735  0.85695952  0.03862056     0.06300
H940        H  0.60368807  0.84983904  0.04985864     0.07100
C941        C  0.56382188  0.10758850  0.19168328    -0.22500
C942        C  0.55781760  0.12556514  0.20055125     0.09500
C943        C  0.56984414  0.14127573  0.22818134     0.09900
C944        C  0.58878894  0.13973165  0.24492938    -0.17400
C945        C  0.59605247  0.12284927  0.23468633    -0.27800
C946        C  0.58285872  0.10602986  0.20832093     0.18200
C947        C  0.54178668  0.13006785  0.17738387     0.12200
C948        C  0.56339597  0.16035915  0.23899143    -0.12200
H949        H  0.59857699  0.15239878  0.26543529     0.12500
C950        C  0.58965063  0.08747870  0.19604361    -0.23000
H951        H  0.55445461  0.09563360  0.17033732     0.08100
C952        C  0.55142612  0.14350384  0.14706573     0.04500
C953        C  0.53603264  0.14746290  0.12536196    -0.20200
C954        C  0.51093986  0.13822200  0.13280111    -0.12500
C955        C  0.50139905  0.12503839  0.16378649     0.13200
C956        C  0.51703960  0.12121030  0.18566796    -0.23000
C957        C  0.57810004  0.15378333  0.13758587    -0.06000
H958        H  0.54381930  0.15773656  0.10207934     0.14700
C959        C  0.47487482  0.11456680  0.17398469    -0.16200
H960        H  0.50992219  0.11105818  0.20922484     0.09000
H961        H  0.57797007  0.07656656  0.17436294     0.06900
H962        H  0.58713583  0.07451061  0.21695474     0.08100
H963        H  0.60907637  0.09695501  0.18731533     0.07100
H964        H  0.54377747  0.15129819  0.24673044     0.02000
H965        H  0.56651312  0.17310960  0.21750736     0.02500
H966        H  0.57472124  0.17129303  0.26091340     0.06000
H967        H  0.58274539  0.16421088  0.11325043     0.05000
H968        H  0.58223952  0.13866578  0.13449240    -0.00800
H969        H  0.59001190  0.16636885  0.15786930     0.00700
H970        H  0.46273739  0.10118259  0.15461137     0.04300
H971        H  0.47048086  0.12954862  0.17659707     0.06300
H972        H  0.47084509  0.10481201  0.19883808     0.07100
C973        C  0.57811032  0.11985168  0.39463778    -0.22500
C974        C  0.58549690  0.12998847  0.42712322     0.09500
C975        C  0.61022507  0.13946875  0.43714682     0.09900
C976        C  0.62743215  0.14010240  0.41342471    -0.17400
C977        C  0.62030910  0.13152115  0.37999608    -0.27800
C978        C  0.59511335  0.12037147  0.37098802     0.18200
C979        C  0.56707480  0.13174568  0.44892807     0.12200
C980        C  0.61837407  0.14907903  0.47266847    -0.12200
H981        H  0.64661042  0.14818312  0.42055793     0.12500
C982        C  0.58589761  0.10874417  0.33654795    -0.23000
H983        H  0.55898508  0.11215579  0.38741012     0.08100
C984        C  0.56398385  0.15246301  0.44719729     0.04500
C985        C  0.54453533  0.15238162  0.46498017    -0.20200
C986        C  0.52773827  0.13193334  0.48417852    -0.12500
C987        C  0.53124159  0.11136278  0.48655955     0.13200
C988        C  0.55086226  0.11154232  0.46879018    -0.23000
C989        C  0.58083469  0.17444372  0.42581683    -0.06000
H990        H  0.54204925  0.16820826  0.46305267     0.14700
C991        C  0.51477739  0.08940116  0.50819402    -0.16200
H992        H  0.55333133  0.09568140  0.46984084     0.09000
H993        H  0.59293213  0.12293685  0.31631506     0.06900
H994        H  0.56551328  0.09901616  0.33513961     0.08100
H995        H  0.59196039  0.09520049  0.33142186     0.07100
H996        H  0.60784657  0.13424774  0.49144468     0.02000
H997        H  0.61506202  0.16455378  0.47767627     0.02500
H998        H  0.63825168  0.15568314  0.47646847     0.06000
H999        H  0.57573554  0.18900093  0.42709772     0.05000
H1000       H  0.57987058  0.16892597  0.39875722    -0.00800
H1001       H  0.60004071  0.18234443  0.43493341     0.00700
H1002       H  0.49580795  0.08009151  0.49785224     0.04300
H1003       H  0.51463942  0.09527901  0.53482856     0.06300
H1004       H  0.51546379  0.07102301  0.00182794     0.07100
C1005       C  0.48395782  0.25023960  0.38751557    -0.22500
C1006       C  0.46164852  0.22817770  0.38780212     0.09500
C1007       C  0.44102226  0.22666469  0.37115255     0.09900
C1008       C  0.44324995  0.24748273  0.35445842    -0.17400
C1009       C  0.46563411  0.26981090  0.35420883    -0.27800
C1010       C  0.48633561  0.27110030  0.37107066     0.18200
C1011       C  0.46017184  0.20787265  0.40866105     0.12200
C1012       C  0.41676645  0.20310732  0.37103527    -0.12200
H1013       H  0.42737401  0.24630912  0.34163656     0.12500
C1014       C  0.51083660  0.29443587  0.37320623    -0.23000
H1015       H  0.49953471  0.25122405  0.40101307     0.08100
C1016       C  0.47127027  0.19415063  0.39824205     0.04500
C1017       C  0.47317116  0.17818176  0.42160064    -0.20200
C1018       C  0.46446533  0.17603900  0.45506822    -0.12500
C1019       C  0.45173935  0.18846161  0.46456809     0.13200
C1020       C  0.45006844  0.20446297  0.44134316    -0.23000
C1021       C  0.48154225  0.19682826  0.36281383    -0.06000
H1022       H  0.48258085  0.16835044  0.41429522     0.14700
C1023       C  0.43969089  0.18534084  0.49893837    -0.16200
H1024       H  0.44139707  0.21491513  0.44912392     0.09000
H1025       H  0.51903182  0.30005322  0.34740907     0.06900
H1026       H  0.52420298  0.29213065  0.38914237     0.08100
H1027       H  0.50845111  0.30919922  0.38483786     0.07100
H1028       H  0.40995300  0.19774710  0.39752936     0.02000
H1029       H  0.41910276  0.18835406  0.35926619     0.02500
H1030       H  0.40260246  0.20491753  0.35634223     0.06000
H1031       H  0.48924149  0.18449712  0.35865907     0.05000
H1032       H  0.49646468  0.21596046  0.35850352    -0.00800
H1033       H  0.46673568  0.19218122  0.34383040     0.00700
H1034       H  0.44979296  0.20334206  0.01338746     0.04300
H1035       H  0.44026309  0.17118251  0.01586059     0.06300
H1036       H  0.42014699  0.18022649  0.49533918     0.07100
C1037       C  0.48505211  0.23222915  0.14692533    -0.22500
C1038       C  0.46618675  0.23758153  0.14102158     0.09500
C1039       C  0.44779525  0.22377149  0.11686124     0.09900
C1040       C  0.44846749  0.20453871  0.09948581    -0.17400
C1041       C  0.46738728  0.19912223  0.10534834    -0.27800
C1042       C  0.48593002  0.21320818  0.12947418     0.18200
C1043       C  0.46542835  0.25670949  0.16228286     0.12200
C1044       C  0.42751197  0.22936051  0.10956876    -0.12200
H1045       H  0.43424447  0.19376572  0.08110455     0.12500
C1046       C  0.50607220  0.20761035  0.13820270    -0.23000
H1047       H  0.49892993  0.24275712  0.16585811     0.08100
C1048       C  0.45387611  0.25079794  0.19447113     0.04500
C1049       C  0.45605201  0.26964135  0.21574459    -0.20200
C1050       C  0.46974612  0.29435114  0.20587745    -0.12500
C1051       C  0.48069858  0.30029709  0.17313977     0.13200
C1052       C  0.47828530  0.28130265  0.15166530    -0.23000
C1053       C  0.43995953  0.22465389  0.20688428    -0.06000
H1054       H  0.44768942  0.26513041  0.24082796     0.14700
C1055       C  0.49615529  0.32630117  0.16071494    -0.16200
H1056       H  0.48728419  0.28576797  0.12702497     0.09000
H1057       H  0.51795397  0.21943714  0.15912652     0.06900
H1058       H  0.51802269  0.21085478  0.11569308     0.08100
H1059       H  0.49791288  0.18823196  0.14661061     0.07100
H1060       H  0.43552662  0.24848913  0.10015436     0.02000
H1061       H  0.41685339  0.22724122  0.13315218     0.02500
H1062       H  0.41463889  0.21691325  0.08991425     0.06000
H1063       H  0.43208079  0.22327103  0.23269057     0.05000
H1064       H  0.45247124  0.21693027  0.20814992    -0.00800
H1065       H  0.42461444  0.21346809  0.18920058     0.00700
H1066       H  0.51500317  0.32991731  0.15491164     0.04300
H1067       H  0.49781613  0.34014721  0.17948277     0.06300
H1068       H  0.48795358  0.32890443  0.13709630     0.07100
C1069       C  0.30192921  0.08259082  0.45315461    -0.22500
C1070       C  0.32206965  0.07955224  0.44567088     0.09500
C1071       C  0.32092103  0.06509252  0.41738905     0.09900
C1072       C  0.29932884  0.05347805  0.39773310    -0.17400
C1073       C  0.27863289  0.05530905  0.40650621    -0.27800
C1074       C  0.28024535  0.07069977  0.43392872     0.18200
C1075       C  0.34345210  0.09006873  0.46917291     0.12200
C1076       C  0.34179970  0.06049930  0.40940816    -0.12200
H1077       H  0.29787652  0.04122948  0.37732756     0.12500
C1078       C  0.25912666  0.07441474  0.44408791    -0.23000
H1079       H  0.30287423  0.09374318  0.47477748     0.08100
C1080       C  0.36523618  0.11200140  0.46144700     0.04500
C1081       C  0.38609826  0.11911622  0.48181276    -0.20200
C1082       C  0.38573669  0.10667042  0.01151405    -0.12500
C1083       C  0.36299403  0.08628768  0.02117247     0.13200
C1084       C  0.34230804  0.07909940  0.00022471    -0.23000
C1085       C  0.36655531  0.12770975  0.43154783    -0.06000
H1086       H  0.40329478  0.13513075  0.47463845     0.14700
C1087       C  0.36006088  0.07069693  0.05192739    -0.16200
H1088       H  0.32516367  0.06280201  0.00671865     0.09000
H1089       H  0.26536645  0.09431025  0.44461115     0.06900
H1090       H  0.25248061  0.06659312  0.46988802     0.08100
H1091       H  0.24353976  0.06583827  0.42598090     0.07100
H1092       H  0.34521457  0.05160278  0.43159007     0.02000
H1093       H  0.35876821  0.07801141  0.40371925     0.02500
H1094       H  0.33764957  0.04829755  0.38700528     0.06000
H1095       H  0.38496598  0.14436618  0.42932564     0.05000
H1096       H  0.35271075  0.13365648  0.43479138    -0.00800
H1097       H  0.36275500  0.11727557  0.40744855     0.00700
H1098       H  0.34637474  0.07102796  0.06953790     0.04300
H1099       H  0.37735204  0.07684070  0.06623921     0.06300
H1100       H  0.35324104  0.05151736  0.04369948     0.07100
C1101       C  0.19369548  0.05656436  0.02061604    -0.22500
C1102       C  0.19694422  0.08116192  0.50751046     0.09500
C1103       C  0.20167819  0.08633011  0.47242690     0.09900
C1104       C  0.19933811  0.06784130  0.45021554    -0.17400
C1105       C  0.19288595  0.04426572  0.46210836    -0.27800
C1106       C  0.18893568  0.03929440  0.49748004     0.18200
C1107       C  0.19735685  0.09738633  0.03346477     0.12200
C1108       C  0.20886894  0.11131866  0.45828511    -0.12200
H1109       H  0.20275232  0.07191051  0.42324449     0.12500
C1110       C  0.18872740  0.01474026  0.01194095    -0.23000
H1111       H  0.19389423  0.05371942  0.04786265     0.08100
C1112       C  0.17636536  0.09481719  0.05035937     0.04500
C1113       C  0.17788174  0.11472421  0.06863754    -0.20200
C1114       C  0.19988085  0.13746447  0.07038230    -0.12500
C1115       C  0.22134676  0.13940543  0.05504180     0.13200
C1116       C  0.21972561  0.11932219  0.03693740    -0.23000
C1117       C  0.15208768  0.07135517  0.04800965    -0.06000
H1118       H  0.16141385  0.11263027  0.08073865     0.14700
C1119       C  0.24594429  0.16257487  0.05660874    -0.16200
H1120       H  0.23582932  0.12104784  0.02411024     0.09000
H1121       H  0.18810161  0.01442257  0.04023946     0.06900
H1122       H  0.20464761  0.01274982  0.00410188     0.08100
H1123       H  0.16497463  0.00017713  0.49913861     0.07100
H1124       H  0.22636613  0.12529126  0.47005864     0.02000
H1125       H  0.19425299  0.11588428  0.46388215     0.02500
H1126       H  0.21160442  0.11218223  0.43023692     0.06000
H1127       H  0.13737449  0.07250941  0.06220808     0.05000
H1128       H  0.15385056  0.05601269  0.05897647    -0.00800
H1129       H  0.15016236  0.07805284  0.50012113     0.00700
H1130       H  0.26054865  0.16046019  0.04370687     0.04300
H1131       H  0.25155301  0.16744887  0.08359643     0.06300
H1132       H  0.24490245  0.17774052  0.04364174     0.07100
C1133       C  0.21992220  0.11069145  0.30330818    -0.22500
C1134       C  0.19934537  0.10726691  0.28484201     0.09500
C1135       C  0.17837269  0.08374515  0.28306683     0.09900
C1136       C  0.17863292  0.06400402  0.29930335    -0.17400
C1137       C  0.19954630  0.06705211  0.31679587    -0.27800
C1138       C  0.22034269  0.09088512  0.31938182     0.18200
C1139       C  0.20121272  0.12744486  0.26327969     0.12200
C1140       C  0.15600281  0.07935464  0.26306293    -0.12200
H1141       H  0.16260865  0.04585802  0.29730850     0.12500
C1142       C  0.24291192  0.09571931  0.33920596    -0.23000
H1143       H  0.23601520  0.12885561  0.30422375     0.08100
C1144       C  0.19261897  0.14328073  0.27394709     0.04500
C1145       C  0.19123899  0.15931240  0.25010547    -0.20200
C1146       C  0.19789942  0.15935525  0.21595210    -0.12500
C1147       C  0.20819052  0.14468270  0.20607420     0.13200
C1148       C  0.20979216  0.12902392  0.22998579    -0.23000
C1149       C  0.18445272  0.14280262  0.31013249    -0.06000
H1150       H  0.18380146  0.17090454  0.25771393     0.14700
C1151       C  0.21741517  0.14524680  0.17032911    -0.16200
H1152       H  0.21671444  0.11700502  0.22226104     0.09000
H1153       H  0.25661346  0.11558989  0.34021963     0.06900
H1154       H  0.25196084  0.08638508  0.32693292     0.08100
H1155       H  0.23773327  0.08903521  0.36580623     0.07100
H1156       H  0.16099315  0.08426148  0.23588667     0.02000
H1157       H  0.14855282  0.09072723  0.27350771     0.02500
H1158       H  0.14122963  0.05985954  0.26422184     0.06000
H1159       H  0.17830592  0.15640116  0.31426046     0.05000
H1160       H  0.19996640  0.14718447  0.32772371    -0.00800
H1161       H  0.16892792  0.12435324  0.31644786     0.00700
H1162       H  0.22693452  0.13439043  0.16827417     0.04300
H1163       H  0.23066399  0.16440311  0.16276522     0.06300
H1164       H  0.20183589  0.13721934  0.15215351     0.07100
C1165       C  0.45020750  0.88994758  0.03729681    -0.22500
C1166       C  0.42940339  0.86811675  0.04739959     0.09500
C1167       C  0.42748306  0.84548084  0.03888042     0.09900
C1168       C  0.44700750  0.84516037  0.02200791    -0.17400
C1169       C  0.46878145  0.86696020  0.01391974    -0.27800
C1170       C  0.46998951  0.88976729  0.02065331     0.18200
C1171       C  0.41155693  0.86913640  0.07116372     0.12200
C1172       C  0.40527132  0.82161485  0.04907851    -0.12200
H1173       H  0.44736295  0.82330191  0.52339757     0.12500
C1174       C  0.49195958  0.91404098  0.01105591    -0.23000
H1175       H  0.45141354  0.90724053  0.04394509     0.08100
C1176       C  0.41654459  0.87206325  0.10636325     0.04500
C1177       C  0.39828953  0.86987948  0.12889344    -0.20200
C1178       C  0.37476195  0.86421227  0.11744415    -0.12500
C1179       C  0.36988012  0.86168994  0.08190961     0.13200
C1180       C  0.38856750  0.86457793  0.05921327    -0.23000
C1181       C  0.44085890  0.87656436  0.12034530    -0.06000
H1182       H  0.40231351  0.87211765  0.15595495     0.14700
C1183       C  0.34508975  0.85446427  0.06682991    -0.16200
H1184       H  0.38478563  0.86203964  0.03212034     0.09000
H1185       H  0.48890107  0.92962483  0.01668059     0.06900
H1186       H  0.49565930  0.91444977  0.98331787     0.08100
H1187       H  0.50832115  0.91704606  0.02582959     0.07100
H1188       H  0.38855035  0.82020804  0.03720099     0.02000
H1189       H  0.40317392  0.82072697  0.07723054     0.02500
H1190       H  0.40682085  0.80556056  0.04078386     0.06000
H1191       H  0.44151824  0.87792948  0.14858767     0.05000
H1192       H  0.45597682  0.89398368  0.10992126    -0.00800
H1193       H  0.44395317  0.86124321  0.11311405     0.00700
H1194       H  0.34662246  0.86949370  0.05024137     0.04300
H1195       H  0.33061425  0.85016420  0.08600858     0.06300
H1196       H  0.33883031  0.83774038  0.05110900     0.07100
C1197       C  0.44460262  0.88649762  0.27971111    -0.22500
C1198       C  0.44120832  0.86453204  0.29391762     0.09500
C1199       C  0.41823293  0.84297729  0.29057677     0.09900
C1200       C  0.39906711  0.84395977  0.27362386    -0.17400
C1201       C  0.40186539  0.86613382  0.26081039    -0.27800
C1202       C  0.42523226  0.88764180  0.26320556     0.18200
C1203       C  0.46017705  0.86516577  0.31718646     0.12200
C1204       C  0.41339862  0.81916924  0.30667908    -0.12200
H1205       H  0.38134327  0.82738770  0.27193737     0.12500
C1206       C  0.43001264  0.91183194  0.24864164    -0.23000
H1207       H  0.46223194  0.90301577  0.28278869     0.08100
C1208       C  0.47642892  0.85674333  0.30766753     0.04500
C1209       C  0.49116481  0.85427219  0.33279292    -0.20200
C1210       C  0.48996375  0.86021898  0.36699098    -0.12500
C1211       C  0.47507102  0.87051367  0.37568788     0.13200
C1212       C  0.46032761  0.87272057  0.35071588    -0.23000
C1213       C  0.47836138  0.85067318  0.27110133    -0.06000
H1214       H  0.50310353  0.84709773  0.32593458     0.14700
C1215       C  0.47486606  0.87961257  0.41117660    -0.16200
H1216       H  0.44819075  0.87967199  0.35760668     0.09000
H1217       H  0.44964635  0.92615509  0.25104169     0.06900
H1218       H  0.41901751  0.91845216  0.26250859     0.08100
H1219       H  0.42519750  0.90972524  0.22113837     0.07100
H1220       H  0.41632443  0.82155441  0.33463029     0.02000
H1221       H  0.42593971  0.81325507  0.29588172     0.02500
H1222       H  0.39424594  0.80424023  0.30222991     0.06000
H1223       H  0.49207837  0.84454186  0.26797143     0.05000
H1224       H  0.48414851  0.86720508  0.25500987    -0.00800
H1225       H  0.46038597  0.83585861  0.26182247     0.00700
H1226       H  0.46398756  0.88914373  0.41248364     0.04300
H1227       H  0.49394386  0.89278547  0.41922725     0.06300
H1228       H  0.46649528  0.86406056  0.42938693     0.07100
C1229       C  0.26271879  0.89737328  0.29768431    -0.22500
C1230       C  0.26537498  0.91996778  0.28778658     0.09500
C1231       C  0.27910343  0.93166067  0.25815441     0.09900
C1232       C  0.29071375  0.92096424  0.23985764    -0.17400
C1233       C  0.28918162  0.89897223  0.25078193    -0.27800
C1234       C  0.27443975  0.88673628  0.27963299     0.18200
C1235       C  0.25405492  0.93137039  0.30906560     0.12200
C1236       C  0.28199589  0.95576928  0.24639530    -0.12200
H1237       H  0.30210345  0.93047597  0.21802045     0.12500
C1238       C  0.27057857  0.86219662  0.29116761    -0.23000
H1239       H  0.25176803  0.88824951  0.32001812     0.08100
C1240       C  0.23001487  0.92687513  0.30281978     0.04500
C1241       C  0.22113340  0.94014659  0.32093493    -0.20200
C1242       C  0.23558649  0.95768443  0.34550640    -0.12500
C1243       C  0.25925198  0.96124831  0.35305551     0.13200
C1244       C  0.26809193  0.94792372  0.33481835    -0.23000
C1245       C  0.21400564  0.90855199  0.27637181    -0.06000
H1246       H  0.20308610  0.93751555  0.31494997     0.14700
C1247       C  0.27628615  0.97988629  0.37852270    -0.16200
H1248       H  0.28650364  0.95120908  0.33977068     0.09000
H1249       H  0.25755286  0.85470938  0.31292991     0.06900
H1250       H  0.28815341  0.86368797  0.29954386     0.08100
H1251       H  0.26274854  0.84903292  0.26983221     0.07100
H1252       H  0.29108220  0.96976909  0.26659673     0.02000
H1253       H  0.26367587  0.95364860  0.24085585     0.02500
H1254       H  0.29333505  0.96251482  0.22290443     0.06000
H1255       H  0.19572663  0.90728605  0.27455988     0.05000
H1256       H  0.21110128  0.89014385  0.28314484    -0.00800
H1257       H  0.22296829  0.91396887  0.25099160     0.00700
H1258       H  0.28104758  0.97050397  0.39864679     0.04300
H1259       H  0.26830443  0.99006129  0.39110836     0.06300
H1260       H  0.29343171  0.99348512  0.36547696     0.07100
C1261       C  0.41256456  0.97292955  0.13829123    -0.22500
C1262       C  0.40729506  0.99159119  0.14579111     0.09500
C1263       C  0.39183651  0.98881458  0.17367869     0.09900
C1264       C  0.38079081  0.96673265  0.19222941    -0.17400
C1265       C  0.38469706  0.94739816  0.18311439    -0.27800
C1266       C  0.40149764  0.95086237  0.15668982     0.18200
C1267       C  0.41686556  0.01321088  0.12287397     0.12200
C1268       C  0.38628904  0.00879102  0.18296002    -0.12200
H1269       H  0.36765199  0.96388097  0.21217388     0.12500
C1270       C  0.40756475  0.93130519  0.14677395    -0.23000
H1271       H  0.42473446  0.97527096  0.11722200     0.08100
C1272       C  0.44045978  0.03371106  0.12728127     0.04500
C1273       C  0.44777624  0.05450328  0.10668197    -0.20200
C1274       C  0.43209041  0.05518629  0.08165439    -0.12500
C1275       C  0.40881910  0.03422645  0.07632947     0.13200
C1276       C  0.40157691  0.01342973  0.09691775    -0.23000
C1277       C  0.45754307  0.03389349  0.15440047    -0.06000
H1278       H  0.46549047  0.07071107  0.11098636     0.14700
C1279       C  0.39065081  0.03354002  0.05062209    -0.16200
H1280       H  0.38348712  0.99754762  0.09352044     0.09000
H1281       H  0.42774398  0.93884484  0.14827475     0.06900
H1282       H  0.40142004  0.92527230  0.12023636     0.08100
H1283       H  0.39882457  0.91503489  0.16375875     0.07100
H1284       H  0.37715970  0.01240876  0.16126221     0.02000
H1285       H  0.40364151  0.02582709  0.18912680     0.02500
H1286       H  0.37392851  0.00369389  0.20545226     0.06000
H1287       H  0.47524179  0.05147307  0.15464505     0.05000
H1288       H  0.46157420  0.01884143  0.14968887    -0.00800
H1289       H  0.44883633  0.03127489  0.17985172     0.00700
H1290       H  0.38623056  0.01862886  0.03204556     0.04300
H1291       H  0.39751581  0.05090245  0.03620777     0.06300
H1292       H  0.37350554  0.02974712  0.06397765     0.07100
C1293       C  0.88229181  0.77977835  0.27290362    -0.22500
C1294       C  0.90649832  0.79725175  0.28141941     0.09500
C1295       C  0.91073460  0.81355725  0.30851967     0.09900
C1296       C  0.89064851  0.81258304  0.32580024    -0.17400
C1297       C  0.86627054  0.79573438  0.31659528    -0.27800
C1298       C  0.86208710  0.77878199  0.29007648     0.18200
C1299       C  0.92684194  0.80040737  0.25869530     0.12200
C1300       C  0.93650099  0.83228501  0.31878795    -0.12200
H1301       H  0.89403123  0.82548728  0.34615659     0.12500
C1302       C  0.83652702  0.76052781  0.27833008    -0.23000
H1303       H  0.87921787  0.76754377  0.25174629     0.08100
C1304       C  0.93763485  0.78538625  0.26069373     0.04500
C1305       C  0.95614033  0.78887312  0.23722608    -0.20200
C1306       C  0.96367147  0.80670558  0.21134418    -0.12500
C1307       C  0.95343164  0.82246447  0.21056643     0.13200
C1308       C  0.93517734  0.81896756  0.23413828    -0.23000
C1309       C  0.92949799  0.76567592  0.28743965    -0.06000
H1310       H  0.96414012  0.77705897  0.23839833     0.14700
C1311       C  0.96176058  0.84341285  0.18554263    -0.16200
H1312       H  0.92699902  0.83064109  0.23317092     0.09000
H1313       H  0.82623820  0.74762393  0.29935589     0.06900
H1314       H  0.83682412  0.74949914  0.25645781     0.08100
H1315       H  0.82670929  0.77027560  0.27006643     0.07100
H1316       H  0.94604772  0.84496812  0.29723348     0.02000
H1317       H  0.94683760  0.82287221  0.32608803     0.02500
H1318       H  0.93661732  0.84339228  0.34082097     0.06000
H1319       H  0.93988883  0.75566057  0.28571595     0.05000
H1320       H  0.90966783  0.75224602  0.28417023    -0.00800
H1321       H  0.93250621  0.77399664  0.31317027     0.00700
H1322       H  0.95590517  0.83632162  0.15934126     0.04300
H1323       H  0.98206226  0.85518743  0.18662683     0.06300
H1324       H  0.95361802  0.85516219  0.19132595     0.07100
C1325       C  0.90474837  0.78065197  0.02497839    -0.22500
C1326       C  0.89939897  0.79897449  0.03434831     0.09500
C1327       C  0.91257981  0.81517097  0.06099063     0.09900
C1328       C  0.93185955  0.81354789  0.07648298    -0.17400
C1329       C  0.93836078  0.79617996  0.06579943    -0.27800
C1330       C  0.92412995  0.77902635  0.04029551     0.18200
C1331       C  0.88062368  0.80178314  0.51052111     0.12200
C1332       C  0.90685228  0.83469866  0.07213670    -0.12200
H1333       H  0.94243862  0.82646593  0.09636582     0.12500
C1334       C  0.93005643  0.75995920  0.02756030    -0.23000
H1335       H  0.87728844  0.76840275  0.55572678     0.08100
C1336       C  0.87472460  0.78878332  0.47952365     0.04500
C1337       C  0.85842559  0.79066475  0.45707543    -0.20200
C1338       C  0.84778991  0.80506571  0.46502734    -0.12500
C1339       C  0.85264064  0.81706588  0.49678041     0.13200
C1340       C  0.85761786  0.79184675  0.01974855    -0.23000
C1341       C  0.88634812  0.77370319  0.46956353    -0.06000
H1342       H  0.85445228  0.78138536  0.43265457     0.14700
C1343       C  0.81423596  0.78090383  0.00648964    -0.16200
H1344       H  0.85076724  0.78049119  0.04237458     0.09000
H1345       H  0.91760371  0.74888416  0.00658221     0.06900
H1346       H  0.92792651  0.74718547  0.04855416     0.08100
H1347       H  0.94918264  0.76898746  0.01767096     0.07100
H1348       H  0.88748223  0.82601168  0.08094191     0.02000
H1349       H  0.90951932  0.84720795  0.05051679     0.02500
H1350       H  0.91891494  0.84584073  0.09339162     0.06000
H1351       H  0.87992196  0.76504859  0.44418741     0.05000
H1352       H  0.88151381  0.75888196  0.48856397    -0.00800
H1353       H  0.90663841  0.78551978  0.46848161     0.00700
H1354       H  0.81047849  0.77018465  0.03046867     0.04300
H1355       H  0.82120652  0.82128421  0.50681423     0.06300
H1356       H  0.80760734  0.79416017  0.01003900     0.07100
C1357       C  0.08979463  0.87503783  0.02213389    -0.22500
C1358       C  0.08338339  0.87649434  0.98843836     0.09500
C1359       C  0.05908233  0.86085129  0.97727097     0.09900
C1360       C  0.04129951  0.84485119  0.00072711    -0.17400
C1361       C  0.04731745  0.84475730  0.03517302    -0.27800
C1362       C  0.07208420  0.85953373  0.04573979     0.18200
C1363       C  0.10115936  0.89730261  0.46916673     0.12200
C1364       C  0.05186685  0.86167347  0.94091272    -0.12200
H1365       H  0.02246979  0.83330507  0.99254364     0.12500
C1366       C  0.08009479  0.85907709  0.08186117    -0.23000
H1367       H  0.10853397  0.88704757  0.03038001     0.08100
C1368       C  0.10352179  0.92015099  0.96872349     0.04500
C1369       C  0.12187938  0.94032838  0.45313927    -0.20200
C1370       C  0.13927890  0.93762083  0.43392500    -0.12500
C1371       C  0.13743348  0.91422529  0.43217722     0.13200
C1372       C  0.11826329  0.89430324  0.44975064    -0.23000
C1373       C  0.08640121  0.92453569  0.99079536    -0.06000
H1374       H  0.12337389  0.95821459  0.45497582     0.14700
C1375       C  0.15524119  0.90998440  0.41151717    -0.16200
H1376       H  0.11679711  0.87640567  0.44880589     0.09000
H1377       H  0.07209001  0.86702203  0.09947715     0.06900
H1378       H  0.10038222  0.86999166  0.08466107     0.08100
H1379       H  0.07413157  0.83990545  0.08946819     0.07100
H1380       H  0.06082591  0.85924667  0.42515025     0.02000
H1381       H  0.05503448  0.88026208  0.93473783     0.02500
H1382       H  0.03217127  0.84829385  0.93631410     0.06000
H1383       H  0.09037235  0.94379709  0.98909071     0.05000
H1384       H  0.08841540  0.92062614  0.01785301    -0.00800
H1385       H  0.06710116  0.91240286  0.98266647     0.00700
H1386       H  0.17401164  0.92062048  0.42234908     0.04300
H1387       H  0.15532045  0.91563718  0.38465466     0.06300
H1388       H  0.15020565  0.89037284  0.41158572     0.07100
C1389       C  0.10866480  0.88588141  0.20483983    -0.22500
C1390       C  0.10354487  0.90282307  0.22068848     0.09500
C1391       C  0.07970397  0.89967540  0.21830419     0.09900
C1392       C  0.06169364  0.87996732  0.19956376    -0.17400
C1393       C  0.06648062  0.86256512  0.18414464    -0.27800
C1394       C  0.09032312  0.86545532  0.18727353     0.18200
C1395       C  0.12262413  0.92242220  0.24232186     0.12200
C1396       C  0.07292501  0.91651110  0.23669638    -0.12200
H1397       H  0.04343113  0.87772180  0.19795837     0.12500
C1398       C  0.09668410  0.84717268  0.17264650    -0.23000
H1399       H  0.12694373  0.88827488  0.20721456     0.08100
C1400       C  0.12832492  0.91690507  0.27478103     0.04500
C1401       C  0.14452351  0.93604601  0.29599270    -0.20200
C1402       C  0.15511853  0.96064667  0.28578349    -0.12500
C1403       C  0.14979038  0.96624678  0.25300996     0.13200
C1404       C  0.13375568  0.94697329  0.23154453    -0.23000
C1405       C  0.11658342  0.89088880  0.28766337    -0.06000
H1406       H  0.14854435  0.93182000  0.32120234     0.14700
C1407       C  0.15943018  0.99213463  0.24056611    -0.16200
H1408       H  0.12918506  0.95116412  0.20667970     0.09000
H1409       H  0.08554328  0.82911139  0.18526859     0.06900
H1410       H  0.11634177  0.85286993  0.17666469     0.08100
H1411       H  0.09316133  0.84529604  0.14485731     0.07100
H1412       H  0.08418119  0.93551285  0.22700153     0.02000
H1413       H  0.07619983  0.91614517  0.26446095     0.02500
H1414       H  0.05326275  0.91094469  0.23302992     0.06000
H1415       H  0.12248810  0.88996001  0.31405857     0.05000
H1416       H  0.12184869  0.87996618  0.27110299    -0.00800
H1417       H  0.09627031  0.88255253  0.28766755     0.00700
H1418       H  0.17053794  0.99519633  0.21714644     0.04300
H1419       H  0.17100971  0.00616347  0.25952751     0.06300
H1420       H  0.14373777  0.99498781  0.23441361     0.07100
C1421       C  0.07773958  0.72807834  0.99779641    -0.22500
C1422       C  0.09250822  0.74485069  0.02289224     0.09500
C1423       C  0.11721230  0.75060010  0.02622543     0.09900
C1424       C  0.12635847  0.73892935  0.00507363    -0.17400
C1425       C  0.10789463  0.72103712  0.47686401    -0.27800
C1426       C  0.08321011  0.71532221  0.47224339     0.18200
C1427       C  0.08120412  0.75495226  0.04661700     0.12200
C1428       C  0.13349215  0.76789985  0.05346783    -0.12200
H1429       H  0.14488625  0.74226343  0.00906699     0.12500
C1430       C  0.06589100  0.69539100  0.44845274    -0.23000
H1431       H  0.05872689  0.72358594  0.99536758     0.08100
C1432       C  0.08167855  0.77717787  0.03965834     0.04500
C1433       C  0.06888179  0.78484368  0.06115859    -0.20200
C1434       C  0.05497863  0.77056475  0.08909345    -0.12500
C1435       C  0.05507569  0.74856705  0.09661690     0.13200
C1436       C  0.06844690  0.74123627  0.07548622    -0.23000
C1437       C  0.09458769  0.79216609  0.00853702    -0.06000
H1438       H  0.06840549  0.80139638  0.05482586     0.14700
C1439       C  0.04008265  0.73152709  0.12507236    -0.16200
H1440       H  0.06802113  0.72409138  0.08070133     0.09000
H1441       H  0.05842582  0.70318383  0.42959683     0.06900
H1442       H  0.05332918  0.68171784  0.96877022     0.08100
H1443       H  0.07488267  0.68682564  0.43415046     0.07100
H1444       H  0.12533536  0.76075526  0.07895009     0.02000
H1445       H  0.13540743  0.78625510  0.04974148     0.02500
H1446       H  0.15217419  0.77003335  0.05299676     0.06000
H1447       H  0.08034852  0.80379331  0.49564103     0.05000
H1448       H  0.07526033  0.77559284  0.47684208    -0.00800
H1449       H  0.10414192  0.79577515  0.49760205     0.00700
H1450       H  0.02662771  0.71342379  0.11431328     0.04300
H1451       H  0.02970568  0.73828348  0.14000289     0.06300
H1452       H  0.05244578  0.72901566  0.14284297     0.07100
C1453       C  0.22159320  0.73281229  0.08206525    -0.22500
C1454       C  0.21137534  0.74470306  0.10020211     0.09500
C1455       C  0.18612285  0.73682862  0.09649981     0.09900
C1456       C  0.17185976  0.71775368  0.07353622    -0.17400
C1457       C  0.18241992  0.70658207  0.05410348    -0.27800
C1458       C  0.20756920  0.71384516  0.05927046     0.18200
C1459       C  0.22826765  0.76594613  0.12156524     0.12200
C1460       C  0.17434992  0.74860824  0.11661696    -0.12200
H1461       H  0.15269192  0.71231092  0.06965831     0.12500
C1462       C  0.21997875  0.70175629  0.04110317    -0.23000
H1463       H  0.24098294  0.73889320  0.08523930     0.08100
C1464       C  0.23912083  0.76263411  0.15110401     0.04500
C1465       C  0.25916534  0.78296042  0.16607429    -0.20200
C1466       C  0.26821699  0.80674993  0.15306841    -0.12500
C1467       C  0.25656279  0.81023370  0.12439072     0.13200
C1468       C  0.23675944  0.78973339  0.10893297    -0.23000
C1469       C  0.22978779  0.73756868  0.16653187    -0.06000
H1470       H  0.26834438  0.78009277  0.18748239     0.14700
C1471       C  0.26600991  0.83516358  0.10848419    -0.16200
H1472       H  0.22865185  0.79210627  0.08583246     0.09000
H1473       H  0.23869636  0.70796368  0.05129147     0.06900
H1474       H  0.22213505  0.70645884  0.01358474     0.08100
H1475       H  0.20904538  0.68157374  0.04448873     0.07100
H1476       H  0.18316071  0.76838656  0.11019590     0.02000
H1477       H  0.17658011  0.74653130  0.14429661     0.02500
H1478       H  0.15439352  0.74008358  0.11105453     0.06000
H1479       H  0.23984471  0.73837108  0.19024839     0.05000
H1480       H  0.23209059  0.72539453  0.14833018    -0.00800
H1481       H  0.21000947  0.72948583  0.17297944     0.00700
H1482       H  0.25548483  0.83431582  0.08525566     0.04300
H1483       H  0.28558774  0.84288106  0.10108645     0.06300
H1484       H  0.26430203  0.84762085  0.12685431     0.07100
C1485       C  0.24908640  0.75197435  0.38067699    -0.22500
C1486       C  0.24918191  0.77418210  0.37793813     0.09500
C1487       C  0.23018001  0.77672558  0.39295296     0.09900
C1488       C  0.21044161  0.75629346  0.40846359    -0.17400
C1489       C  0.20940116  0.73342636  0.40928753    -0.27800
C1490       C  0.22949655  0.73150193  0.39617860     0.18200
C1491       C  0.26617714  0.79216239  0.35296101     0.12200
C1492       C  0.23056596  0.80085826  0.39186793    -0.12200
H1493       H  0.19547097  0.75803693  0.41916929     0.12500
C1494       C  0.23001580  0.70776291  0.39637648    -0.23000
H1495       H  0.26373526  0.75027674  0.36868886     0.08100
C1496       C  0.29133330  0.80785073  0.35971356     0.04500
C1497       C  0.30685492  0.82224581  0.33312246    -0.20200
C1498       C  0.29787959  0.82015084  0.29974284    -0.12500
C1499       C  0.27257356  0.80414637  0.29320449     0.13200
C1500       C  0.25702949  0.79086764  0.32010136    -0.23000
C1501       C  0.30172912  0.80903556  0.39467982    -0.06000
H1502       H  0.32621501  0.83444559  0.33811351     0.14700
C1503       C  0.26175806  0.80016077  0.25791625    -0.16200
H1504       H  0.23772488  0.77829781  0.31517515     0.09000
H1505       H  0.23014920  0.70185415  0.42302185     0.06900
H1506       H  0.24670287  0.70966972  0.38364676     0.08100
H1507       H  0.21376616  0.69338461  0.38260860     0.07100
H1508       H  0.23027355  0.80636507  0.36505127     0.02000
H1509       H  0.24752171  0.81515303  0.40444631     0.02500
H1510       H  0.21447266  0.79982590  0.40525804     0.06000
H1511       H  0.32175189  0.82236264  0.39565066     0.05000
H1512       H  0.29892143  0.79074362  0.40195862    -0.00800
H1513       H  0.29232681  0.81473201  0.41348618     0.00700
H1514       H  0.26911132  0.79055353  0.24248355     0.04300
H1515       H  0.26646977  0.81785502  0.24563544     0.06300
H1516       H  0.24141732  0.78855281  0.25816682     0.07100
C1517       C  0.92423739  0.69443051  0.19420155    -0.22500
C1518       C  0.93014916  0.67577653  0.19109023     0.09500
C1519       C  0.94808365  0.67834952  0.16702713     0.09900
C1520       C  0.96095884  0.70031016  0.14838980    -0.17400
C1521       C  0.95608484  0.71957916  0.15308318    -0.27800
C1522       C  0.93692087  0.71627447  0.17540297     0.18200
C1523       C  0.91779867  0.65391225  0.21369552     0.12200
C1524       C  0.95389624  0.65807424  0.16149808    -0.12200
H1525       H  0.97575748  0.70294265  0.13143404     0.12500
C1526       C  0.92958626  0.73555193  0.18019609    -0.23000
H1527       H  0.91004990  0.69219075  0.21207033     0.08100
C1528       C  0.92894582  0.65217062  0.24411149     0.04500
C1529       C  0.91792918  0.63006827  0.26269743    -0.20200
C1530       C  0.89608666  0.60970668  0.25144715    -0.12500
C1531       C  0.88399660  0.61215372  0.22245059     0.13200
C1532       C  0.89501359  0.63425597  0.20393549    -0.23000
C1533       C  0.95273627  0.67345790  0.25647381    -0.06000
H1534       H  0.92717399  0.62820780  0.28492962     0.14700
C1535       C  0.85945148  0.59148115  0.21102684    -0.16200
H1536       H  0.88623309  0.63595121  0.18108196     0.09000
H1537       H  0.93195286  0.74117958  0.20731638     0.06900
H1538       H  0.90993456  0.72780014  0.17326766     0.08100
H1539       H  0.94043232  0.75207435  0.16420282     0.07100
H1540       H  0.93707607  0.64126028  0.15307139     0.02000
H1541       H  0.96059742  0.65408802  0.18551431     0.02500
H1542       H  0.96828594  0.66302000  0.14170435     0.06000
H1543       H  0.95891467  0.66907769  0.28070220     0.05000
H1544       H  0.95024382  0.68951269  0.26095819    -0.00800
H1545       H  0.96741058  0.67841235  0.23718133     0.00700
H1546       H  0.84597274  0.58602440  0.23220040     0.04300
H1547       H  0.86115724  0.57548819  0.20330920     0.06300
H1548       H  0.85210496  0.59685024  0.18887665     0.07100
C1549       C  0.81262817  0.53152982  0.14342284    -0.22500
C1550       C  0.78896554  0.52599458  0.15350970     0.09500
C1551       C  0.78022052  0.51578916  0.18597857     0.09900
C1552       C  0.79591253  0.51300203  0.20859004    -0.17400
C1553       C  0.82020098  0.51956022  0.19955133    -0.27800
C1554       C  0.82833559  0.52819020  0.16584770     0.18200
C1555       C  0.77295158  0.53017297  0.12983399     0.12200
C1556       C  0.75413453  0.50756263  0.19672821    -0.12200
H1557       H  0.78901138  0.50582244  0.23380470     0.12500
C1558       C  0.85318110  0.53361398  0.15290714    -0.23000
H1559       H  0.81883629  0.53860580  0.11793273     0.08100
C1560       C  0.76932042  0.55046110  0.13360482     0.04500
C1561       C  0.75000559  0.55087826  0.11595818    -0.20200
C1562       C  0.73421400  0.53140844  0.09464078    -0.12500
C1563       C  0.73955669  0.51224657  0.08843346     0.13200
C1564       C  0.75879149  0.51188772  0.10629518    -0.23000
C1565       C  0.78550733  0.57135163  0.15689355    -0.06000
H1566       H  0.74655739  0.56592655  0.12013056     0.14700
C1567       C  0.72523407  0.49201169  0.06317476    -0.16200
H1568       H  0.76205990  0.49662657  0.10315166     0.09000
H1569       H  0.86803153  0.54895581  0.16735975     0.06900
H1570       H  0.85575213  0.53900342  0.12558612     0.08100
H1571       H  0.85503154  0.51701106  0.15543618     0.07100
H1572       H  0.74113594  0.49331399  0.17890279     0.02000
H1573       H  0.75075848  0.52327951  0.19650671     0.02500
H1574       H  0.75017025  0.49962072  0.22282355     0.06000
H1575       H  0.78037968  0.58590380  0.15668444     0.05000
H1576       H  0.80493401  0.57961281  0.14846899    -0.00800
H1577       H  0.78397275  0.56468625  0.18347944     0.00700
H1578       H  0.72502503  0.50001006  0.03799473     0.04300
H1579       H  0.70617211  0.48000774  0.07235150     0.06300
H1580       H  0.73355264  0.48016951  0.05952314     0.07100
C1581       C  0.71917377  0.51996703  0.39520192    -0.22500
C1582       C  0.74365618  0.52949061  0.40573274     0.09500
C1583       C  0.75010960  0.53723121  0.43974814     0.09900
C1584       C  0.73189989  0.53482735  0.46258414    -0.17400
C1585       C  0.70725844  0.52477141  0.45250769    -0.27800
C1586       C  0.70075145  0.51721184  0.41826009     0.18200
C1587       C  0.76202269  0.52931817  0.38200457     0.12200
C1588       C  0.77608546  0.54730638  0.45235181    -0.12200
H1589       H  0.73691559  0.54063919  0.48877828     0.12500
C1590       C  0.67464255  0.50488826  0.40547267    -0.23000
H1591       H  0.71425713  0.51378888  0.36913711     0.08100
C1592       C  0.76252507  0.50753634  0.37554991     0.04500
C1593       C  0.78226366  0.50862874  0.35728247    -0.20200
C1594       C  0.80193956  0.53105600  0.34565534    -0.12500
C1595       C  0.80079708  0.55282640  0.35097187     0.13200
C1596       C  0.78075036  0.55156172  0.36889572    -0.23000
C1597       C  0.74274881  0.48321963  0.38918077    -0.06000
H1598       H  0.78267902  0.49179376  0.35324682     0.14700
C1599       C  0.82053036  0.57751549  0.33835598    -0.16200
H1600       H  0.78011067  0.56818441  0.37392475     0.09000
H1601       H  0.66970676  0.48666173  0.39483116     0.06900
H1602       H  0.67301739  0.51622221  0.38500718     0.08100
H1603       H  0.66099458  0.50178487  0.42551719     0.07100
H1604       H  0.78861443  0.56432252  0.43822172     0.02000
H1605       H  0.78204767  0.53355033  0.44851278     0.02500
H1606       H  0.77775032  0.55184740  0.47991688     0.06000
H1607       H  0.74624533  0.46806810  0.38248360     0.05000
H1608       H  0.72468329  0.47883281  0.37828914    -0.00800
H1609       H  0.74192066  0.48400518  0.41738951     0.00700
H1610       H  0.81584805  0.59208364  0.34346074     0.04300
H1611       H  0.82286385  0.57687254  0.31039004     0.06300
H1612       H  0.83814292  0.58285400  0.35154137     0.07100
C1613       C  0.03558885  0.62183946  0.36163732    -0.22500
C1614       C  0.01654528  0.60118090  0.37718596     0.09500
C1615       C  0.02021545  0.59393734  0.40976522     0.09900
C1616       C  0.04308444  0.60787637  0.42624889    -0.17400
C1617       C  0.06227844  0.62890163  0.41075090    -0.27800
C1618       C  0.05820414  0.63596811  0.37784160     0.18200
C1619       C  0.99222837  0.58973075  0.36013982     0.12200
C1620       C  0.99987515  0.57176713  0.42714777    -0.12200
H1621       H  0.04596438  0.60234593  0.45123341     0.12500
C1622       C  0.07696780  0.65895099  0.35966623    -0.23000
H1623       H  0.03232872  0.62741872  0.33689125     0.08100
C1624       C  0.97742616  0.60070535  0.36270935     0.04500
C1625       C  0.95553004  0.59097779  0.34422404    -0.20200
C1626       C  0.94779265  0.57042922  0.32311509    -0.12500
C1627       C  0.96276227  0.55952024  0.32005403     0.13200
C1628       C  0.98497624  0.56948944  0.33851913    -0.23000
C1629       C  0.98464221  0.62265966  0.38521629    -0.06000
H1630       H  0.94404473  0.59928636  0.34670159     0.14700
C1631       C  0.95569335  0.53711961  0.29868718    -0.16200
H1632       H  0.99665821  0.56140705  0.33613680     0.09000
H1633       H  0.06945754  0.66246045  0.33600737     0.06900
H1634       H  0.09303947  0.65718893  0.35194274     0.08100
H1635       H  0.08287321  0.67511707  0.37642523     0.07100
H1636       H  0.99440671  0.55528462  0.41120509     0.02000
H1637       H  0.98372987  0.57431791  0.43080718     0.02500
H1638       H  0.00566306  0.56855652  0.45250251     0.06000
H1639       H  0.97067153  0.62861287  0.38479645     0.05000
H1640       H  0.00234244  0.63830673  0.37642941    -0.00800
H1641       H  0.98663070  0.61806120  0.41193606     0.00700
H1642       H  0.96979940  0.54157126  0.27863460     0.04300
H1643       H  0.93763269  0.53001084  0.28609318     0.06300
H1644       H  0.95478683  0.52225693  0.31503515     0.07100
C1645       C  0.77508834  0.24757856  0.44542957    -0.22500
C1646       C  0.78160072  0.25008793  0.41101302     0.09500
C1647       C  0.80307600  0.27119848  0.39984211     0.09900
C1648       C  0.81738738  0.28964607  0.42348471    -0.17400
C1649       C  0.81074942  0.28743440  0.45814491    -0.27800
C1650       C  0.78942146  0.26561366  0.46928416     0.18200
C1651       C  0.76463741  0.23074216  0.38727109     0.12200
C1652       C  0.81103916  0.27402871  0.36312223    -0.12200
H1653       H  0.83382703  0.30588429  0.41476905     0.12500
C1654       C  0.77250714  0.29044125  0.98195026    -0.23000
H1655       H  0.75849073  0.23126316  0.45364664     0.08100
C1656       C  0.76144393  0.20690219  0.38796626     0.04500
C1657       C  0.74248527  0.18831623  0.36874477    -0.20200
C1658       C  0.72639795  0.19290387  0.34909488    -0.12500
C1659       C  0.73064675  0.21728584  0.34700362     0.13200
C1660       C  0.74963376  0.23576376  0.36627591    -0.23000
C1661       C  0.77790438  0.20103506  0.40920343    -0.06000
H1662       H  0.73970793  0.16989702  0.37015368     0.14700
C1663       C  0.71541262  0.22427337  0.32482135    -0.16200
H1664       H  0.75225773  0.25415016  0.36597972     0.09000
H1665       H  0.75242452  0.28120408  0.97697295     0.06900
H1666       H  0.77987467  0.31051451  0.97981983     0.08100
H1667       H  0.77488719  0.28561337  0.00834027     0.07100
H1668       H  0.79689335  0.27436142  0.34648950     0.02000
H1669       H  0.81362459  0.25843323  0.35565416     0.02500
H1670       H  0.82864400  0.29128247  0.35879775     0.06000
H1671       H  0.77337423  0.18168914  0.40598729     0.05000
H1672       H  0.77587093  0.20394513  0.43661236    -0.00800
H1673       H  0.79734274  0.21307392  0.40145557     0.00700
H1674       H  0.69627780  0.21562203  0.33455002     0.04300
H1675       H  0.71554375  0.21850342  0.29812463     0.06300
H1676       H  0.72270508  0.24438250  0.32461096     0.07100
C1677       C  0.71668705  0.19405570  0.14785606    -0.22500
C1678       C  0.74111238  0.20708108  0.15943296     0.09500
C1679       C  0.74674461  0.20234711  0.19240548     0.09900
C1680       C  0.72784034  0.18524380  0.21334328    -0.17400
C1681       C  0.70325867  0.17278155  0.20243883    -0.27800
C1682       C  0.69760144  0.17695577  0.16899212     0.18200
C1683       C  0.76017830  0.22752063  0.13857929     0.12200
C1684       C  0.77262050  0.21602427  0.20603656    -0.12200
H1685       H  0.73217897  0.18206891  0.23894867     0.12500
C1686       C  0.67171908  0.16489493  0.15539723    -0.23000
H1687       H  0.71235578  0.19792797  0.12266558     0.08100
C1688       C  0.77648401  0.22447952  0.11702943     0.04500
C1689       C  0.79592200  0.24513456  0.10103005    -0.20200
C1690       C  0.79917148  0.26876215  0.10554380    -0.12500
C1691       C  0.78235866  0.27157260  0.12676900     0.13200
C1692       C  0.76321549  0.25094784  0.14295390    -0.23000
C1693       C  0.77324855  0.19942468  0.11087529    -0.06000
H1694       H  0.80852547  0.24277888  0.08464894     0.14700
C1695       C  0.78490291  0.29630263  0.13377765    -0.16200
H1696       H  0.75073508  0.25314199  0.15983956     0.09000
H1697       H  0.67035107  0.15400503  0.13243464     0.06900
H1698       H  0.66706297  0.17918707  0.14816424     0.08100
H1699       H  0.65778353  0.15255089  0.17405623     0.07100
H1700       H  0.77917406  0.23598652  0.20642195     0.02000
H1701       H  0.78501020  0.21259213  0.18966197     0.02500
H1702       H  0.77378353  0.21020396  0.23239936     0.06000
H1703       H  0.78745588  0.20017088  0.09322890     0.05000
H1704       H  0.75491002  0.18739728  0.09942505    -0.00800
H1705       H  0.77460312  0.19121481  0.13526710     0.00700
H1706       H  0.78180016  0.30398352  0.11002272     0.04300
H1707       H  0.80350668  0.30893369  0.14402648     0.06300
H1708       H  0.77123225  0.29514249  0.15278762     0.07100
C1709       C  0.86301455  0.42557688  0.23883209    -0.22500
C1710       C  0.87403112  0.42905939  0.20674569     0.09500
C1711       C  0.88698781  0.45285898  0.19265379     0.09900
C1712       C  0.88780919  0.47257837  0.21045972    -0.17400
C1713       C  0.87535946  0.46889108  0.24153713    -0.27800
C1714       C  0.86373035  0.44524388  0.25664552     0.18200
C1715       C  0.86846081  0.40736480  0.18583325     0.12200
C1716       C  0.89867046  0.45717865  0.15788031    -0.12200
H1717       H  0.89671909  0.49064096  0.19888279     0.12500
C1718       C  0.85197115  0.44002886  0.29141199    -0.23000
H1719       H  0.85312584  0.40725964  0.24955215     0.08100
C1720       C  0.88439686  0.39763715  0.18358688     0.04500
C1721       C  0.87951540  0.37923583  0.15945194    -0.20200
C1722       C  0.85928621  0.37079364  0.13728504    -0.12500
C1723       C  0.84251846  0.37960225  0.14132887     0.13200
C1724       C  0.84731105  0.39762439  0.16571217    -0.23000
C1725       C  0.90664713  0.40698856  0.20619169    -0.06000
H1726       H  0.89212028  0.37224318  0.15685213     0.14700
C1727       C  0.81949384  0.37029672  0.12015194    -0.16200
H1728       H  0.83501355  0.40501760  0.16812445     0.09000
H1729       H  0.85973262  0.43097866  0.30751706     0.06900
H1730       H  0.83182918  0.42764100  0.28902457     0.08100
H1731       H  0.85544000  0.45681211  0.30496260     0.07100
H1732       H  0.88442715  0.44658684  0.13845182     0.02000
H1733       H  0.91264941  0.45126363  0.15769341     0.02500
H1734       H  0.90789060  0.47683374  0.15052163     0.06000
H1735       H  0.91717030  0.39739376  0.20123155     0.05000
H1736       H  0.90079298  0.40401858  0.23331441    -0.00800
H1737       H  0.91904736  0.42686921  0.20171911     0.00700
H1738       H  0.80755191  0.37750613  0.12931023     0.04300
H1739       H  0.80867440  0.35001649  0.12155060     0.06300
H1740       H  0.82423769  0.37627267  0.09325955     0.07100
C1741       C  0.88213097  0.43990303  0.47489401    -0.22500
C1742       C  0.86613126  0.43597706  0.44758584     0.09500
C1743       C  0.84972176  0.41179243  0.43694577     0.09900
C1744       C  0.84893958  0.39205653  0.45478530    -0.17400
C1745       C  0.86490360  0.39585874  0.48209908    -0.27800
C1746       C  0.88178871  0.42011985  0.49230211     0.18200
C1747       C  0.86764183  0.45724001  0.42887365     0.12200
C1748       C  0.83363751  0.40681587  0.40600694    -0.12200
H1749       H  0.83618615  0.37347264  0.44681179     0.12500
C1750       C  0.90658323  0.42815217  0.02138469    -0.23000
H1751       H  0.89495525  0.45850928  0.48266018     0.08100
C1752       C  0.85044707  0.46525031  0.43418978     0.04500
C1753       C  0.85007282  0.48255451  0.41173603    -0.20200
C1754       C  0.86649001  0.49187318  0.38424720    -0.12500
C1755       C  0.88478100  0.48510995  0.38044661     0.13200
C1756       C  0.88514649  0.46791000  0.40287514    -0.23000
C1757       C  0.83215313  0.45508134  0.46297652    -0.06000
H1758       H  0.83604095  0.48772830  0.41444584     0.14700
C1759       C  0.90378735  0.49523035  0.35244487    -0.16200
H1760       H  0.89849329  0.46193861  0.39908281     0.09000
H1761       H  0.90647268  0.44088112  0.04086633     0.06900
H1762       H  0.92485788  0.43694509  0.00877436     0.08100
H1763       H  0.90393159  0.41157076  0.03500790     0.07100
H1764       H  0.84529643  0.41558973  0.38324045     0.02000
H1765       H  0.82108637  0.41428849  0.40969132     0.02500
H1766       H  0.82222940  0.38687879  0.40089173     0.06000
H1767       H  0.82009979  0.46336324  0.46355020     0.05000
H1768       H  0.84208076  0.45903050  0.48762759    -0.00800
H1769       H  0.82027866  0.43496805  0.46026448     0.00700
H1770       H  0.92244242  0.50431094  0.36390791     0.04300
H1771       H  0.90239038  0.50896793  0.33630262     0.06300
H1772       H  0.90172188  0.48007243  0.33579236     0.07100
C1773       C  0.93639623  0.26199392  0.42265663    -0.22500
C1774       C  0.91844730  0.24549853  0.44529940     0.09500
C1775       C  0.91246474  0.22068613  0.44533701     0.09900
C1776       C  0.92566156  0.21326090  0.42411835    -0.17400
C1777       C  0.94487170  0.23022245  0.40337141    -0.27800
C1778       C  0.94978876  0.25470438  0.40185571     0.18200
C1779       C  0.90699837  0.25505411  0.46949211     0.12200
C1780       C  0.89313763  0.20242569  0.46907020    -0.12200
H1781       H  0.92218311  0.19459304  0.42555076     0.12500
C1782       C  0.96964791  0.27375597  0.37939723    -0.23000
H1783       H  0.94065056  0.28094126  0.42219165     0.08100
C1784       C  0.92000064  0.26927740  0.49806894     0.04500
C1785       C  0.91128270  0.28216583  0.01526889    -0.20200
C1786       C  0.88792022  0.27871313  0.00759884    -0.12500
C1787       C  0.87306698  0.26229293  0.48237531     0.13200
C1788       C  0.88339677  0.25113007  0.46260913    -0.23000
C1789       C  0.94495932  0.27297502  0.50720707    -0.06000
H1790       H  0.92236508  0.29552344  0.03441675     0.14700
C1791       C  0.84753898  0.25511817  0.97444868    -0.16200
H1792       H  0.87326872  0.23988624  0.44107215     0.09000
H1793       H  0.98379775  0.28859721  0.39540256     0.06900
H1794       H  0.96149212  0.28174144  0.36200620     0.08100
H1795       H  0.97881483  0.26615034  0.36338344     0.07100
H1796       H  0.87633083  0.19944715  0.96671732     0.02000
H1797       H  0.89967908  0.20877190  0.99937779     0.02500
H1798       H  0.89310705  0.18334673  0.97195489     0.06000
H1799       H  0.95240783  0.28425370  0.53055152     0.05000
H1800       H  0.95812479  0.28245706  0.48609843    -0.00800
H1801       H  0.94360676  0.25492174  0.51189863     0.00700
H1802       H  0.84757188  0.26428945  0.44748830     0.04300
H1803       H  0.84091407  0.26498128  0.99084915     0.06300
H1804       H  0.83499957  0.23517833  0.97836973     0.07100
C1805       C  0.12036920  0.22175813  0.22962910    -0.22500
C1806       C  0.09615433  0.20400556  0.22178551     0.09500
C1807       C  0.09180393  0.18721498  0.19529018     0.09900
C1808       C  0.11185741  0.18792080  0.17814477    -0.17400
C1809       C  0.13626953  0.20517683  0.18666705    -0.27800
C1810       C  0.14049415  0.22260429  0.21251529     0.18200
C1811       C  0.07594155  0.20160724  0.24423719     0.12200
C1812       C  0.06599005  0.16818540  0.18577151    -0.12200
H1813       H  0.10843725  0.17464934  0.15825376     0.12500
C1814       C  0.16607020  0.24134102  0.22359334    -0.23000
H1815       H  0.12352675  0.23448110  0.25021865     0.08100
C1816       C  0.07086087  0.18867162  0.27530385     0.04500
C1817       C  0.05198965  0.18693345  0.29632695    -0.20200
C1818       C  0.03798671  0.19799304  0.28747521    -0.12500
C1819       C  0.04295835  0.21081916  0.25602060     0.13200
C1820       C  0.06185974  0.21238413  0.23476584    -0.23000
C1821       C  0.08538016  0.17661755  0.28629873    -0.06000
H1822       H  0.04844557  0.17712262  0.32025635     0.14700
C1823       C  0.02817202  0.22238082  0.24424843    -0.16200
H1824       H  0.06579250  0.22216286  0.21072392     0.09000
H1825       H  0.17624441  0.23199416  0.23202096     0.06900
H1826       H  0.16580012  0.25258826  0.24519656     0.08100
H1827       H  0.17599184  0.25402756  0.20220300     0.07100
H1828       H  0.05561713  0.17734751  0.17745024     0.02000
H1829       H  0.05659219  0.15628729  0.20809106     0.02500
H1830       H  0.06574962  0.15636390  0.16461840     0.06000
H1831       H  0.07888517  0.16703038  0.31116098     0.05000
H1832       H  0.10507936  0.19063347  0.28902854    -0.00800
H1833       H  0.08352014  0.16292894  0.26698062     0.00700
H1834       H  0.03116666  0.23751141  0.26161740     0.04300
H1835       H  0.00833897  0.20837828  0.24371014     0.06300
H1836       H  0.03358571  0.23024424  0.21821668     0.07100
C1837       C  0.08881734  0.18640404  0.44775780    -0.22500
C1838       C  0.10165770  0.20492739  0.47157028     0.09500
C1839       C  0.09615336  0.22395997  0.47523705     0.09900
C1840       C  0.07695990  0.22337612  0.45601482    -0.17400
C1841       C  0.06301494  0.20410410  0.43319635    -0.27800
C1842       C  0.06956234  0.18561008  0.42851026     0.18200
C1843       C  0.12041941  0.20079423  0.99219250     0.12200
C1844       C  0.11019643  0.24453636  0.50003742    -0.12200
H1845       H  0.07243041  0.23775586  0.45958279     0.12500
C1846       C  0.05596343  0.16430891  0.40455423    -0.23000
H1847       H  0.09484076  0.17010032  0.94271762     0.08100
C1848       C  0.11129515  0.18903441  0.02371608     0.04500
C1849       C  0.12708228  0.18632618  0.04612798    -0.20200
C1850       C  0.15195500  0.19490463  0.03796764    -0.12500
C1851       C  0.16090915  0.20617175  0.00569075     0.13200
C1852       C  0.14346349  0.21206014  0.48610984    -0.23000
C1853       C  0.08477122  0.17919164  0.03371463    -0.06000
H1854       H  0.11973145  0.17744238  0.07041630     0.14700
C1855       C  0.18703345  0.21528032  0.99442173    -0.16200
H1856       H  0.14982188  0.22167533  0.46200889     0.09000
H1857       H  0.06487920  0.14987673  0.90245543     0.06900
H1858       H  0.05758697  0.17114531  0.37807058     0.08100
H1859       H  0.03633501  0.15348294  0.41212496     0.07100
H1860       H  0.13001138  0.25430243  0.49322527     0.02000
H1861       H  0.10798289  0.23712515  0.52630617     0.02500
H1862       H  0.10364383  0.25801536  0.49976536     0.06000
H1863       H  0.08066125  0.17040243  0.05928653     0.05000
H1864       H  0.07256351  0.16525312  0.01494854    -0.00800
H1865       H  0.08046623  0.19429591  0.03440680     0.00700
H1866       H  0.19056639  0.22352854  0.96852628     0.04300
H1867       H  0.19076313  0.19978220  0.99365006     0.06300
H1868       H  0.19900472  0.23352901  0.51462714     0.07100
C1869       C  0.93429883  0.14547298  0.02045339    -0.22500
C1870       C  0.92385865  0.12462928  0.51834359     0.09500
C1871       C  0.93573346  0.11669087  0.49538192     0.09900
C1872       C  0.95384017  0.13373453  0.47350551    -0.17400
C1873       C  0.95998505  0.15854228  0.47299571    -0.27800
C1874       C  0.94823813  0.16651569  0.49672526     0.18200
C1875       C  0.90505283  0.10290483  0.03809491     0.12200
C1876       C  0.92839384  0.08997533  0.49256239    -0.12200
H1877       H  0.96256339  0.12726265  0.45569725     0.12500
C1878       C  0.96048501  0.18947488  0.00432682    -0.23000
H1879       H  0.92659982  0.15143099  0.04053019     0.08100
C1880       C  0.90912957  0.09214932  0.06704935     0.04500
C1881       C  0.88890343  0.07341687  0.08427734    -0.20200
C1882       C  0.86471411  0.06582257  0.07382373    -0.12500
C1883       C  0.86073301  0.07810039  0.04628014     0.13200
C1884       C  0.88105120  0.09632948  0.02854633    -0.23000
C1885       C  0.93477444  0.10055459  0.07977247    -0.06000
H1886       H  0.89199877  0.06448630  0.10585442     0.14700
C1887       C  0.83531771  0.07156993  0.03440020    -0.16200
H1888       H  0.87825830  0.10514465  0.00656149     0.09000
H1889       H  0.95174778  0.19218231  0.02728285     0.06900
H1890       H  0.95527769  0.19702037  0.98228232     0.08100
H1891       H  0.97363895  0.20494522  0.50445579     0.07100
H1892       H  0.90863806  0.07903700  0.48578222     0.02000
H1893       H  0.93150238  0.08311599  0.51703349     0.02500
H1894       H  0.93913183  0.08689074  0.47262108     0.06000
H1895       H  0.93466014  0.09038484  0.10301865     0.05000
H1896       H  0.94387950  0.12035041  0.08614484    -0.00800
H1897       H  0.94503855  0.10575093  0.56643207     0.00700
H1898       H  0.83590813  0.08268111  0.01199083     0.04300
H1899       H  0.82541016  0.07511060  0.05508896     0.06300
H1900       H  0.82494115  0.05197936  0.02690677     0.07100
C1901       C  0.90017654  0.11935848  0.27898239    -0.22500
C1902       C  0.89333835  0.09572301  0.29054626     0.09500
C1903       C  0.90500765  0.09289387  0.31955383     0.09900
C1904       C  0.92417265  0.11372266  0.33516568    -0.17400
C1905       C  0.93209440  0.13752197  0.32263022    -0.27800
C1906       C  0.91916531  0.14030810  0.29470363     0.18200
C1907       C  0.87600916  0.07437675  0.26958163     0.12200
C1908       C  0.89721419  0.06787712  0.33412748    -0.12200
H1909       H  0.93343119  0.11123125  0.35685409     0.12500
C1910       C  0.92510917  0.16505690  0.28082872    -0.23000
H1911       H  0.89113482  0.12137814  0.25664718     0.08100
C1912       C  0.85090448  0.06727293  0.26593962     0.04500
C1913       C  0.83621162  0.04846039  0.24292085    -0.20200
C1914       C  0.84614649  0.03672062  0.22348472    -0.12500
C1915       C  0.87090334  0.04287515  0.22882251     0.13200
C1916       C  0.88552165  0.06178275  0.25144381    -0.23000
C1917       C  0.83965977  0.07947820  0.28631129    -0.06000
H1918       H  0.81721287  0.04363781  0.23902946     0.14700
C1919       C  0.88201010  0.02936472  0.21118056    -0.16200
H1920       H  0.90475501  0.06721449  0.25443623     0.09000
H1921       H  0.91214722  0.16350245  0.26039325     0.06900
H1922       H  0.94383880  0.17446338  0.26959886     0.08100
H1923       H  0.92377064  0.17636526  0.30151493     0.07100
H1924       H  0.90054431  0.05664387  0.31544476     0.02000
H1925       H  0.87734717  0.05852165  0.34058469     0.02500
H1926       H  0.90755683  0.06901268  0.35768074     0.06000
H1927       H  0.81959825  0.07090905  0.28160832     0.05000
H1928       H  0.84835652  0.09916333  0.27939928    -0.00800
H1929       H  0.84239869  0.07776656  0.31392371     0.00700
H1930       H  0.88365870  0.03313941  0.18340883     0.04300
H1931       H  0.87037130  0.00935841  0.21575749     0.06300
H1932       H  0.90074504  0.03508651  0.22086483     0.07100
C1933       C  0.02141587  0.38478857  0.13054769    -0.22500
C1934       C  0.01871027  0.39931768  0.10550975     0.09500
C1935       C  0.03884787  0.42276277  0.09822620     0.09900
C1936       C  0.06085893  0.43139756  0.11679533    -0.17400
C1937       C  0.06332322  0.41720643  0.14259202    -0.27800
C1938       C  0.04336883  0.39356884  0.14940621     0.18200
C1939       C  0.99403445  0.39045828  0.08951363     0.12200
C1940       C  0.03688255  0.43890694  0.07145568    -0.12200
H1941       H  0.07590873  0.44979368  0.11218745     0.12500
C1942       C  0.04471815  0.37829903  0.17806037    -0.23000
H1943       H  0.00587568  0.36691801  0.13639638     0.08100
C1944       C  0.98549178  0.37360705  0.06222570     0.04500
C1945       C  0.96131581  0.36443883  0.04996236    -0.20200
C1946       C  0.94534275  0.37156401  0.06456531    -0.12500
C1947       C  0.95439846  0.38942058  0.09073017     0.13200
C1948       C  0.97850324  0.39849305  0.10292017    -0.23000
C1949       C  0.00176261  0.36498926  0.04653349    -0.06000
H1950       H  0.95444283  0.35067801  0.03007254     0.14700
C1951       C  0.93921621  0.39946957  0.10621883    -0.16200
H1952       H  0.98513875  0.41172825  0.12348972     0.09000
H1953       H  0.02744471  0.36043758  0.18045128     0.06900
H1954       H  0.04793126  0.38824105  0.20257235     0.08100
H1955       H  0.06005485  0.37463911  0.17337749     0.07100
H1956       H  0.02214131  0.44299458  0.07843530     0.02000
H1957       H  0.03246918  0.42944232  0.04644877     0.02500
H1958       H  0.05432580  0.45659208  0.06873289     0.06000
H1959       H  0.99237300  0.35187885  0.02540678     0.05000
H1960       H  0.00702370  0.35566852  0.06611131    -0.00800
H1961       H  0.01862872  0.38093035  0.03616749     0.00700
H1962       H  0.93633856  0.39478644  0.13375355     0.04300
H1963       H  0.92104051  0.39243885  0.09387010     0.06300
H1964       H  0.94913563  0.41972530  0.10342683     0.07100
C1965       C  0.09514060  0.37471387  0.31793621    -0.22500
C1966       C  0.06987108  0.35819004  0.31741129     0.09500
C1967       C  0.05384370  0.36520066  0.30218573     0.09900
C1968       C  0.06375171  0.38775812  0.28479880    -0.17400
C1969       C  0.08926641  0.40335739  0.28275759    -0.27800
C1970       C  0.10499866  0.39740203  0.30133670     0.18200
C1971       C  0.06090039  0.33296720  0.33030428     0.12200
C1972       C  0.02640536  0.34849971  0.30337064    -0.12200
H1973       H  0.05169401  0.39235414  0.27075856     0.12500
C1974       C  0.13237188  0.41445337  0.30347878    -0.23000
H1975       H  0.10733038  0.36955364  0.33042927     0.08100
C1976       C  0.05715911  0.31392334  0.30783238     0.04500
C1977       C  0.04727228  0.28999691  0.32045017    -0.20200
C1978       C  0.04149481  0.28469388  0.35511201    -0.12500
C1979       C  0.04654652  0.30398180  0.37795888     0.13200
C1980       C  0.05622736  0.32798774  0.36522349    -0.23000
C1981       C  0.06339876  0.31880068  0.27047749    -0.06000
H1982       H  0.04335411  0.27516035  0.30298984     0.14700
C1983       C  0.04061678  0.29913842  0.41533737    -0.16200
H1984       H  0.05957294  0.34281398  0.38235010     0.09000
H1985       H  0.14217879  0.40621927  0.29026720     0.06900
H1986       H  0.13810839  0.41755179  0.33062754     0.08100
H1987       H  0.13806342  0.43266113  0.29214515     0.07100
H1988       H  0.02019213  0.34481591  0.33032521     0.02000
H1989       H  0.02129205  0.33087430  0.29062861     0.02500
H1990       H  0.01653249  0.35680164  0.29042152     0.06000
H1991       H  0.05947024  0.30184661  0.25662707     0.05000
H1992       H  0.08325484  0.33226795  0.26746877    -0.00800
H1993       H  0.05247004  0.32626372  0.25845977     0.00700
H1994       H  0.04517680  0.31619943  0.42936117     0.04300
H1995       H  0.05139814  0.29127310  0.42672300     0.06300
H1996       H  0.02070669  0.28605148  0.41880273     0.07100
C1997       C  0.22008569  0.45018000  0.28631860    -0.22500
C1998       C  0.22261833  0.46178378  0.31778957     0.09500
C1999       C  0.20829190  0.47289614  0.32456318     0.09900
C2000       C  0.19236260  0.47284296  0.29936507    -0.17400
C2001       C  0.19012112  0.46171914  0.26752208    -0.27800
C2002       C  0.20394560  0.44991156  0.26109726     0.18200
C2003       C  0.24170753  0.46380031  0.34224408     0.12200
C2004       C  0.20976890  0.48476309  0.35845656    -0.12200
H2005       H  0.18153773  0.48158558  0.30457834     0.12500
C2006       C  0.20267882  0.43804045  0.22726079    -0.23000
H2007       H  0.23126519  0.44181144  0.28119703     0.08100
C2008       C  0.23848085  0.44396450  0.36277606     0.04500
C2009       C  0.25744531  0.44699106  0.38497371    -0.20200
C2010       C  0.27952120  0.46954256  0.38757564    -0.12500
C2011       C  0.28245979  0.48951836  0.36715837     0.13200
C2012       C  0.26358782  0.48626862  0.34473452    -0.23000
C2013       C  0.21492087  0.41974829  0.36154548    -0.06000
H2014       H  0.25496254  0.43162434  0.40046904     0.14700
C2015       C  0.30563234  0.51415809  0.36782160    -0.16200
H2016       H  0.26590863  0.50139452  0.32879976     0.09000
H2017       H  0.21569259  0.43090386  0.22604732     0.06900
H2018       H  0.20742328  0.45162417  0.20637086     0.08100
H2019       H  0.18390348  0.42235391  0.22314496     0.07100
H2020       H  0.22865130  0.50022845  0.36266371     0.02000
H2021       H  0.20495834  0.47106788  0.37919584     0.02500
H2022       H  0.19690770  0.49208127  0.35983231     0.06000
H2023       H  0.21520403  0.40626271  0.37961470     0.05000
H2024       H  0.21203864  0.41196138  0.33549602    -0.00800
H2025       H  0.19922909  0.42241770  0.36841392     0.00700
H2026       H  0.30499464  0.52711480  0.34910747     0.04300
H2027       H  0.32172970  0.51204670  0.36139167     0.06300
H2028       H  0.30810831  0.52252204  0.39343188     0.07100
C2029       C  0.27069756  0.47485531  0.08938644    -0.22500
C2030       C  0.24939715  0.47053998  0.07176432     0.09500
C2031       C  0.24909742  0.46934530  0.03591880     0.09900
C2032       C  0.27013445  0.47293284  0.01849349    -0.17400
C2033       C  0.29177880  0.47774744  0.03576257    -0.27800
C2034       C  0.29202000  0.47871666  0.07193653     0.18200
C2035       C  0.22790193  0.46838456  0.09094763     0.12200
C2036       C  0.22638425  0.46384476  0.01595192    -0.12200
H2037       H  0.26643123  0.46224327  0.49566462     0.12500
C2038       C  0.31439899  0.48481166  0.09313392    -0.23000
H2039       H  0.27091299  0.47592095  0.11696852     0.08100
C2040       C  0.21150857  0.44683353  0.10878969     0.04500
C2041       C  0.19138852  0.44580608  0.12624608    -0.20200
C2042       C  0.18726167  0.46583072  0.12620081    -0.12500
C2043       C  0.20309115  0.48696696  0.10698677     0.13200
C2044       C  0.22334309  0.48807569  0.09003311    -0.23000
C2045       C  0.21532831  0.42501482  0.10947863    -0.06000
H2046       H  0.17945462  0.42970003  0.14125558     0.14700
C2047       C  0.19887539  0.50845880  0.10322255    -0.16200
H2048       H  0.23563857  0.50443494  0.07569932     0.09000
H2049       H  0.31087024  0.46861630  0.10872184     0.06900
H2050       H  0.31822208  0.50021850  0.11050615     0.08100
H2051       H  0.33128456  0.49073981  0.07797731     0.07100
H2052       H  0.22162645  0.47843379  0.02014478     0.02000
H2053       H  0.21079485  0.44595661  0.02428010     0.02500
H2054       H  0.22904755  0.46282469  0.98813952     0.06000
H2055       H  0.20066549  0.40952947  0.12418267     0.05000
H2056       H  0.23324878  0.43011139  0.12154447    -0.00800
H2057       H  0.21517999  0.41865369  0.08305509     0.00700
H2058       H  0.21447443  0.52501010  0.11467735     0.04300
H2059       H  0.18156627  0.50529627  0.11530930     0.06300
H2060       H  0.19767124  0.51198060  0.07572460     0.07100
C2061       C  0.12447489  0.55567479  0.12492007    -0.22500
C2062       C  0.11817339  0.54654617  0.09163720     0.09500
C2063       C  0.11366261  0.52273965  0.08408832     0.09900
C2064       C  0.11655803  0.50890706  0.10985215    -0.17400
C2065       C  0.12355350  0.51837544  0.14278096    -0.27800
C2066       C  0.12711163  0.54174454  0.15073707     0.18200
C2067       C  0.11929575  0.56346658  0.06467239     0.12200
C2068       C  0.10588600  0.51203493  0.04896774    -0.12200
H2069       H  0.11371940  0.49081412  0.10423146     0.12500
C2070       C  0.13453718  0.55224146  0.18607093    -0.23000
H2071       H  0.12811842  0.57408307  0.13038059     0.08100
C2072       C  0.10170280  0.57109864  0.06230909     0.04500
C2073       C  0.10607083  0.59040987  0.04022691    -0.20200
C2074       C  0.12779579  0.60242031  0.02079396    -0.12500
C2075       C  0.14447088  0.59333676  0.02134668     0.13200
C2076       C  0.13997742  0.57402121  0.04345023    -0.23000
C2077       C  0.07856630  0.55910739  0.08342423    -0.06000
H2078       H  0.09177078  0.59686350  0.54016639     0.14700
C2079       C  0.16705103  0.60373512  0.99902819    -0.16200
H2080       H  0.15323574  0.56776454  0.04531406     0.09000
H2081       H  0.13695117  0.57094362  0.18775819     0.06900
H2082       H  0.15220243  0.55333071  0.19316735     0.08100
H2083       H  0.12016860  0.54033874  0.20467985     0.07100
H2084       H  0.12042811  0.52319034  0.03014643     0.02000
H2085       H  0.08862500  0.51177668  0.04179931     0.02500
H2086       H  0.10250174  0.49295388  0.04778344     0.06000
H2087       H  0.06648794  0.56694236  0.07787343     0.05000
H2088       H  0.08320334  0.56175093  0.11094627    -0.00800
H2089       H  0.06812958  0.53918413  0.07779017     0.00700
H2090       H  0.17652874  0.59282349  0.00086735     0.04300
H2091       H  0.18045284  0.62269400  0.00693985     0.06300
H2092       H  0.16179340  0.60358360  0.97198673     0.07100
C2093       C  0.14890009  0.60976448  0.32073505    -0.22500
C2094       C  0.14640201  0.58836694  0.33589942     0.09500
C2095       C  0.14507456  0.58603850  0.37160660     0.09900
C2096       C  0.14676003  0.60524702  0.39143178    -0.17400
C2097       C  0.14958549  0.62700222  0.37675436    -0.27800
C2098       C  0.15028955  0.62908548  0.34069382     0.18200
C2099       C  0.14436709  0.56800595  0.31444875     0.12200
C2100       C  0.14141286  0.56300671  0.38890785    -0.12200
H2101       H  0.14556910  0.60297687  0.41887458     0.12500
C2102       C  0.15264585  0.65144687  0.32304727    -0.23000
H2103       H  0.14960529  0.61124167  0.29316322     0.08100
C2104       C  0.12175555  0.55075869  0.29980576     0.04500
C2105       C  0.11993017  0.53026207  0.28287241    -0.20200
C2106       C  0.14032697  0.52684333  0.27971393    -0.12500
C2107       C  0.16301919  0.54416442  0.29435043     0.13200
C2108       C  0.16470812  0.56447457  0.31171975    -0.23000
C2109       C  0.09955504  0.55397815  0.30219439    -0.06000
H2110       H  0.10270460  0.51726424  0.27102301     0.14700
C2111       C  0.18526239  0.54092909  0.29257179    -0.16200
H2112       H  0.18189078  0.57756152  0.32358520     0.09000
H2113       H  0.15352162  0.65012198  0.29490541     0.06900
H2114       H  0.16971313  0.66800630  0.33147646     0.08100
H2115       H  0.13644324  0.65347380  0.32905895     0.07100
H2116       H  0.15708294  0.56008657  0.38306929     0.02000
H2117       H  0.12410488  0.54702674  0.37978578     0.02500
H2118       H  0.14018349  0.56398426  0.41704871     0.06000
H2119       H  0.08327758  0.53874834  0.28960438     0.05000
H2120       H  0.10348410  0.57137446  0.28955559    -0.00800
H2121       H  0.09489851  0.55451221  0.32936084     0.00700
H2122       H  0.19130030  0.54199640  0.26574946     0.04300
H2123       H  0.18074731  0.52287014  0.30354022     0.06300
H2124       H  0.20098046  0.55537450  0.30710018     0.07100
O2125       O  0.08285375  0.44356098  0.68646858    -0.81800
C2126       C  0.17326248  0.46336790  0.74088790     0.97600
O2127       O  0.15976198  0.44490908  0.72213642    -0.70900
O2128       O  0.11342720  0.41901041  0.73709910    -0.74500
Al2129     Al  0.12938013  0.43509384  0.69703621     1.49000
C2130       C  0.09859091  0.42023961  0.75724915     0.92800
O2131       O  0.11819193  0.48393866  0.76032805    -0.80700
O2132       O  0.14443850  0.50066732  0.66677592    -0.74300
Al2133     Al  0.10281006  0.46336823  0.72186844     1.90100
O2134       O  0.15097803  0.51058924  0.73367800    -0.73400
O2135       O  0.17417279  0.48171183  0.67150306    -0.73200
O2136       O  0.17192144  0.48284513  0.73939655    -0.78900
O2137       O  0.14602479  0.44601923  0.65429911    -0.77100
O2138       O  0.12968282  0.46292812  0.70739460    -1.13200
O2139       O  0.09880818  0.42097659  0.67096507    -0.72400
C2140       C  0.08229620  0.42694723  0.66822206     0.98300
C2141       C  0.13599971  0.50537867  0.75763672     0.94700
Al2142     Al  0.15773955  0.49130169  0.70316850     1.55600
O2143       O  0.09193389  0.43601643  0.75302322    -0.77000
C2144       C  0.16732983  0.46406201  0.65149278     0.98900
C2145       C  0.12485414  0.50182404  0.66909665     0.93800
O2146       O  0.10909820  0.49074252  0.69256702    -0.82300
O2147       O  0.98428157  0.19336562  0.94362335    -0.81800
C2148       C  0.02034894  0.19581712  0.81187295     0.97600
O2149       O  0.01143800  0.17739198  0.83157033    -0.70900
O2150       O  0.03174384  0.18704048  0.89106748    -0.74500
Al2151     Al  0.99873009  0.17254936  0.87706878     1.49000
C2152       C  0.04234065  0.20108270  0.91564148     0.92800
O2153       O  0.03131350  0.24806848  0.89285619    -0.80700
O2154       O  0.96118260  0.20981347  0.86673008    -0.74300
Al2155     Al  0.00726409  0.21921352  0.91603249     1.90100
O2156       O  0.00818613  0.24431654  0.84889293    -0.73400
O2157       O  0.96484750  0.17813901  0.82527063    -0.73200
O2158       O  0.01375692  0.21174380  0.81465689    -0.78900
O2159       O  0.96552466  0.15314926  0.86280639    -0.77100
O2160       O  0.99799061  0.20059607  0.87846389    -1.13200
O2161       O  0.98644664  0.16246681  0.92218696    -0.72400
C2162       C  0.97864056  0.17119242  0.94477400     0.98300
C2163       C  0.02648341  0.25731757  0.86746444     0.94700
Al2164     Al  0.98781921  0.21009775  0.84199249     1.55600
O2165       O  0.03325038  0.21311393  0.92872271    -0.77000
C2166       C  0.95556867  0.15682482  0.83738555     0.98900
C2167       C  0.96397466  0.22160067  0.89408387     0.93800
O2168       O  0.98308739  0.22899864  0.91199362    -0.82300
O2169       O  0.86159074  0.33932922  0.61026085    -0.81800
C2170       C  0.82782326  0.31121760  0.98211571     0.97600
O2171       O  0.81849793  0.30796422  0.51125980    -0.70900
O2172       O  0.81656939  0.30814275  0.57764983    -0.74500
Al2173     Al  0.83344769  0.33269975  0.54376633     1.49000
C2174       C  0.81894343  0.29043099  0.58758923     0.92800
O2175       O  0.88105128  0.30112896  0.55368224    -0.80700
O2176       O  0.91031470  0.35444821  0.52473258    -0.74300
Al2177     Al  0.87018998  0.32074959  0.57860699     1.90100
O2178       O  0.87733967  0.30900628  0.50018427    -0.73400
O2179       O  0.88320336  0.37217103  0.00435630    -0.73200
O2180       O  0.85022605  0.32634023  0.97533293    -0.78900
O2181       O  0.84217692  0.35778026  0.51007234    -0.77100
O2182       O  0.86088482  0.33084516  0.54199578    -1.13200
O2183       O  0.84694753  0.35734301  0.57686626    -0.72400
C2184       C  0.85546479  0.35564748  0.60527811     0.98300
C2185       C  0.88102016  0.29670853  0.52217619     0.94700
Al2186     Al  0.87801180  0.33881693  0.50334459     1.55600
O2187       O  0.83921004  0.29118710  0.58338162    -0.77000
C2188       C  0.86540130  0.37621612  0.00384394     0.98900
C2189       C  0.91744825  0.35798471  0.55549691     0.93800
O2190       O  0.90220911  0.34808640  0.57933554    -0.82300
O2191       O  0.88985700  0.57080100  0.74914425    -0.81800
C2192       C  0.86321374  0.50551340  0.85838831     0.97600
O2193       O  0.86730930  0.52741227  0.86202247    -0.70900
O2194       O  0.90772164  0.55943403  0.83291517    -0.74500
Al2195     Al  0.87582668  0.55335232  0.82777755     1.49000
C2196       C  0.92403098  0.56137076  0.81266511     0.92800
O2197       O  0.89054798  0.51144745  0.75760879    -0.80700
O2198       O  0.82820207  0.51242201  0.75832940    -0.74300
Al2199     Al  0.88844603  0.54066092  0.75637843     1.90100
O2200       O  0.85162872  0.48619838  0.76467700    -0.73400
O2201       O  0.82289821  0.51159874  0.82522174    -0.73200
O2202       O  0.85442883  0.49388171  0.83095966    -0.78900
O2203       O  0.84454921  0.55102537  0.82787876    -0.77100
O2204       O  0.86902298  0.53286629  0.79291409    -1.13200
O2205       O  0.88623545  0.58257195  0.80021381    -0.72400
C2206       C  0.88984172  0.58661358  0.76853296     0.98300
C2207       C  0.87258620  0.49005287  0.75631194     0.94700
Al2208     Al  0.84171387  0.50362091  0.79461575     1.55600
O2209       O  0.91910259  0.55556330  0.78161296    -0.77000
C2210       C  0.82448131  0.53179830  0.83248395     0.98900
C2211       C  0.83811852  0.52097512  0.72966617     0.93800
O2212       O  0.86071497  0.52767922  0.72463507    -0.82300
O2213       O  0.12047275  0.69070514  0.99412491    -0.81800
C2214       C  0.15306107  0.64643516  0.90009105     0.97600
O2215       O  0.14979900  0.66423591  0.89163011    -0.70900
O2216       O  0.10681216  0.65433213  0.91181392    -0.74500
Al2217     Al  0.13719335  0.68160937  0.91965480     1.49000
C2218       C  0.08831064  0.64396599  0.93060556     0.92800
O2219       O  0.11443064  0.62959944  0.49583730    -0.80700
O2220       O  0.17949076  0.69110249  0.99888051    -0.74300
Al2221     Al  0.11971781  0.66092497  0.99235933     1.90100
O2222       O  0.15501753  0.64140119  0.99650671    -0.73400
O2223       O  0.18942300  0.69371081  0.93407304    -0.73200
O2224       O  0.15871130  0.64445980  0.93030891    -0.78900
O2225       O  0.16766979  0.71099953  0.92255984    -0.77100
O2226       O  0.14154851  0.67017084  0.95878183    -1.13200
O2227       O  0.12276250  0.70007550  0.93986050    -0.72400
C2228       C  0.11887040  0.70333183  0.97066745     0.98300
C2229       C  0.13218241  0.62679882  0.50452991     0.94700
Al2230     Al  0.16844295  0.66785309  0.96442744     1.55600
O2231       O  0.09059351  0.64632439  0.96278526    -0.77000
C2232       C  0.18816897  0.71200225  0.92369941     0.98900
C2233       C  0.16496096  0.69114789  0.52500908     0.93800
O2234       O  0.14180104  0.67638841  0.52693700    -0.82300
O2235       O  0.98562468  0.75895845  0.66226706    -0.81800
C2236       C  0.02682836  0.83077934  0.56218913     0.97600
O2237       O  0.00912678  0.80931201  0.55561881    -0.70900
O2238       O  0.01720190  0.77615452  0.58120800    -0.74500
Al2239     Al  0.99076081  0.78133701  0.58646468     1.49000
C2240       C  0.03229802  0.77495468  0.60088702     0.92800
O2241       O  0.04396904  0.82030841  0.66378262    -0.80700
O2242       O  0.97996297  0.81757542  0.65902754    -0.74300
Al2243     Al  0.01340191  0.79027016  0.65962269     1.90100
O2244       O  0.02909290  0.84456629  0.65797987    -0.73400
O2245       O  0.97916414  0.82256362  0.59195295    -0.73200
O2246       O  0.02837140  0.84069511  0.59081229    -0.78900
O2247       O  0.96155783  0.78322775  0.58615069    -0.77100
O2248       O  0.00273932  0.79972526  0.62372783    -1.13200
O2249       O  0.97143974  0.75064360  0.61012210    -0.72400
C2250       C  0.97062461  0.74444220  0.64092819     0.98300
C2251       C  0.04591221  0.84092464  0.66834815     0.94700
Al2252     Al  0.00404893  0.82869549  0.62479105     1.55600
O2253       O  0.03206512  0.77888565  0.63261760    -0.77000
C2254       C  0.96087196  0.80268855  0.58315469     0.98900
C2255       C  0.98080579  0.80839715  0.68742369     0.93800
O2256       O  0.99554788  0.80001699  0.69203163    -0.82300
O2257       O  0.33009446  0.85881736  0.77848677    -0.81800
C2258       C  0.35498193  0.85628203  0.64612184     0.97600
O2259       O  0.35581795  0.84709400  0.67439983    -0.70900
O2260       O  0.35910904  0.84499371  0.74084371    -0.74500
Al2261     Al  0.33284438  0.83756953  0.70974611     1.49000
C2262       C  0.37728151  0.86499373  0.74985070     0.92800
O2263       O  0.36499973  0.91647493  0.72193163    -0.80700
O2264       O  0.30858616  0.89095151  0.69858705    -0.74300
Al2265     Al  0.34674050  0.88587009  0.74654174     1.90100
O2266       O  0.35391419  0.90603151  0.66891996    -0.73400
O2267       O  0.29337302  0.84755016  0.67126212    -0.73200
O2268       O  0.33996367  0.86408878  0.64114066    -0.78900
O2269       O  0.30592339  0.82130296  0.67872627    -0.77100
O2270       O  0.33475500  0.86683800  0.70978431    -1.13200
O2271       O  0.30994503  0.82665414  0.74518215    -0.72400
C2272       C  0.31281929  0.83695651  0.77370492     0.98300
C2273       C  0.36757866  0.92146169  0.69045098     0.94700
Al2274     Al  0.32475127  0.87633482  0.67315824     1.55600
O2275       O  0.37648607  0.88451626  0.74698896    -0.77000
C2276       C  0.28978387  0.82613770  0.66851933     0.98900
C2277       C  0.30646287  0.89351880  0.73023952     0.93800
O2278       O  0.31926548  0.88993416  0.75157631    -0.82300
O2279       O  0.19295210  0.99811542  0.80407654    -0.81800
C2280       C  0.18877013  0.02404643  0.93565397     0.97600
O2281       O  0.18034352  0.02512914  0.90678437    -0.70900
O2282       O  0.17878664  0.02770254  0.83987231    -0.74500
Al2283     Al  0.17096016  0.00176945  0.87195806     1.49000
C2284       C  0.19917902  0.04610089  0.83250574     0.92800
O2285       O  0.25013059  0.03384625  0.86236515    -0.80700
O2286       O  0.22424739  0.97756761  0.88587865    -0.74300
Al2287     Al  0.21985402  0.01540758  0.83677692     1.90100
O2288       O  0.23875425  0.02275798  0.91528209    -0.73400
O2289       O  0.18011023  0.96216557  0.91060306    -0.73200
O2290       O  0.19581696  0.00849461  0.94129156    -0.78900
O2291       O  0.15440650  0.97547849  0.90378827    -0.77100
O2292       O  0.20024513  0.00357379  0.87298330    -1.13200
O2293       O  0.16034956  0.97824376  0.83727925    -0.72400
C2294       C  0.17111877  0.98056597  0.80916383     0.98300
C2295       C  0.25459103  0.03645935  0.89401895     0.94700
Al2296     Al  0.20900193  0.99352168  0.91013265     1.55600
O2297       O  0.21847493  0.04493199  0.83589245    -0.77000
C2298       C  0.15877490  0.95893848  0.91347645     0.98900
C2299       C  0.22764244  0.97568159  0.85443879     0.93800
O2300       O  0.22422976  0.98831657  0.83268435    -0.82300
O2301       O  0.46536116  0.14023460  0.97655242    -0.81800
C2302       C  0.49568341  0.14232527  0.60577002     0.97600
O2303       O  0.50544915  0.15075332  0.57693115    -0.70900
O2304       O  0.50972532  0.15346807  0.50954162    -0.74500
Al2305     Al  0.49266869  0.16186983  0.54243140     1.49000
C2306       C  0.50608790  0.13169189  0.00177958     0.92800
O2307       O  0.44421132  0.08396383  0.53274478    -0.80700
O2308       O  0.41493030  0.11508914  0.55545869    -0.74300
Al2309     Al  0.45598768  0.11391289  0.50727996     1.90100
O2310       O  0.44064208  0.09456333  0.58464149    -0.73400
O2311       O  0.44619014  0.15707778  0.58260617    -0.73200
O2312       O  0.47318360  0.13594860  0.61129627    -0.78900
O2313       O  0.48537425  0.17977302  0.57492928    -0.77100
O2314       O  0.46429341  0.13364358  0.54344175    -1.13200
O2315       O  0.48041647  0.17370001  0.50821381    -0.72400
C2316       C  0.47046470  0.16230502  0.98168483     0.98300
C2317       C  0.43969645  0.07893356  0.56399399     0.94700
Al2318     Al  0.44528183  0.12623785  0.58034299     1.55600
O2319       O  0.48556835  0.11311385  0.00723779    -0.77000
C2320       C  0.46553215  0.17727014  0.58603708     0.98900
C2321       C  0.40955442  0.11034562  0.52427009     0.93800
O2322       O  0.42468192  0.11020848  0.50352056    -0.82300
O2323       O  0.76181163  0.98116668  0.58604934    -0.81800
C2324       C  0.83159346  0.02036411  0.69186460     0.97600
O2325       O  0.80909017  0.00428240  0.69633460    -0.70900
O2326       O  0.77928720  0.01661769  0.66849908    -0.74500
Al2327     Al  0.78177405  0.98851899  0.66389554     1.49000
C2328       C  0.77577312  0.02929269  0.64689619     0.92800
O2329       O  0.82108611  0.04063028  0.58854208    -0.80700
O2330       O  0.82005244  0.97793538  0.59187436    -0.74300
Al2331     Al  0.79198034  0.00984537  0.59016740     1.90100
O2332       O  0.84699785  0.02770743  0.59668769    -0.73400
O2333       O  0.82097833  0.97380148  0.65795327    -0.73200
O2334       O  0.84145508  0.02336132  0.66294870    -0.78900
O2335       O  0.78158804  0.95822597  0.66414398    -0.77100
O2336       O  0.80098337  0.99970758  0.62708366    -1.13200
O2337       O  0.75082882  0.97139110  0.63930366    -0.72400
C2338       C  0.74590205  0.96849332  0.60780280     0.98300
C2339       C  0.84252858  0.04410616  0.58661497     0.94700
Al2340     Al  0.82984985  0.00064073  0.62729530     1.55600
O2341       O  0.77807335  0.02672999  0.61528656    -0.77000
C2342       C  0.80043268  0.95614952  0.66679214     0.98900
C2343       C  0.81119718  0.97872124  0.56332444     0.93800
O2344       O  0.80387888  0.99409469  0.55819102    -0.82300
O2345       O  0.57108753  0.88432816  0.00385709    -0.81800
C2346       C  0.50277343  0.85529405  0.89770055     0.97600
O2347       O  0.52512941  0.86140981  0.89238799    -0.70900
O2348       O  0.55234023  0.90292022  0.92140428    -0.74500
Al2349     Al  0.55229007  0.87343567  0.92503898     1.49000
C2350       C  0.55572282  0.91862950  0.94347679     0.92800
O2351       O  0.50862997  0.88005375  0.49631394    -0.80700
O2352       O  0.51556060  0.82306645  0.99706636    -0.74300
Al2353     Al  0.53876034  0.88001205  0.49675687     1.90100
O2354       O  0.48668539  0.84418073  0.99149790    -0.73400
O2355       O  0.51563229  0.81860777  0.93056450    -0.73200
O2356       O  0.49250891  0.84576940  0.92561205    -0.78900
O2357       O  0.55463778  0.84453425  0.92314479    -0.77100
O2358       O  0.53290731  0.86383398  0.96168995    -1.13200
O2359       O  0.58316627  0.88816962  0.95059162    -0.72400
C2360       C  0.58766826  0.88920239  0.98229323     0.98300
C2361       C  0.48779182  0.86128487  0.49777220     0.94700
Al2362     Al  0.50497722  0.83526042  0.96115416     1.55600
O2363       O  0.55474573  0.91361570  0.97487642    -0.77000
C2364       C  0.53659650  0.82322789  0.92043809     0.98900
C2365       C  0.52089896  0.82937955  0.52131485     0.93800
O2366       O  0.52676641  0.85157777  0.52714201    -0.82300
O2367       O  0.67976213  0.10588817  0.75536209    -0.81800
C2368       C  0.64076689  0.13766319  0.85676989     0.97600
O2369       O  0.65746714  0.13222632  0.86310100    -0.70900
O2370       O  0.64839759  0.09106365  0.83652477    -0.74500
Al2371     Al  0.67541530  0.12235075  0.83198231     1.49000
C2372       C  0.63361385  0.07539957  0.81614087     0.92800
O2373       O  0.62243884  0.11044472  0.75580111    -0.80700
O2374       O  0.68710612  0.17004340  0.75870252    -0.74300
Al2375     Al  0.65248202  0.11002996  0.75871870     1.90100
O2376       O  0.63764444  0.14953081  0.76185206    -0.73400
O2377       O  0.68969904  0.17629744  0.82524848    -0.73200
O2378       O  0.64017639  0.14721920  0.82864418    -0.78900
O2379       O  0.70528650  0.15281697  0.83408834    -0.77100
O2380       O  0.66390947  0.12990091  0.79481334    -1.13200
O2381       O  0.69430731  0.11062080  0.80728457    -0.72400
C2382       C  0.69477481  0.10561813  0.77615838     0.98300
C2383       C  0.62054355  0.12921286  0.75190264     0.94700
Al2384     Al  0.66369559  0.15818866  0.79378030     1.55600
O2385       O  0.63403618  0.08020274  0.78475493    -0.77000
C2386       C  0.70711999  0.17356291  0.83555630     0.98900
C2387       C  0.68575069  0.15941257  0.73076754     0.93800
O2388       O  0.66988169  0.13688521  0.72623170    -0.82300
O2389       O  0.44176256  0.34812098  0.83395180    -0.81800
C2390       C  0.47523855  0.31256527  0.73149364     0.97600
O2391       O  0.46991062  0.32951904  0.72650195    -0.70900
O2392       O  0.42903010  0.32261475  0.75313218    -0.74500
Al2393     Al  0.46155129  0.34812929  0.75852513     1.49000
C2394       C  0.41340874  0.30557473  0.77141879     0.92800
O2395       O  0.44806076  0.29187409  0.83150253    -0.80700
O2396       O  0.50754782  0.35672248  0.83028292    -0.74300
Al2397     Al  0.44710674  0.32167067  0.82941517     1.90100
O2398       O  0.48727732  0.30793559  0.82700276    -0.73400
O2399       O  0.51452540  0.35887745  0.76330740    -0.73200
O2400       O  0.48401575  0.31038909  0.75962920    -0.78900
O2401       O  0.49341097  0.37707067  0.75702200    -0.71700
O2402       O  0.46775396  0.33447350  0.79428176    -1.13200
O2403       O  0.45190472  0.36780622  0.78525071    -0.72400
C2404       C  0.44448300  0.36567917  0.81571260     0.98300
C2405       C  0.46706094  0.29047581  0.83629542     0.94700
Al2406     Al  0.49569616  0.33356282  0.79498183     1.55600
O2407       O  0.41811613  0.30329189  0.80207942    -0.77000
C2408       C  0.51335760  0.37718219  0.75351542     0.98900
C2409       C  0.49628067  0.35527408  0.85785308     0.93800
O2410       O  0.47367634  0.33914756  0.86220564    -0.82300
O2411       O  0.24129241  0.22599082  0.66524572    -0.81800
C2412       C  0.16760119  0.19504589  0.56563244     0.97600
O2413       O  0.18966344  0.20051672  0.55910334    -0.70900
O2414       O  0.22112050  0.24260331  0.58425426    -0.74500
Al2415     Al  0.21825777  0.21172513  0.58889594     1.49000
C2416       C  0.22500288  0.25894850  0.60557224     0.92800
O2417       O  0.18128222  0.22589114  0.66696457    -0.80700
O2418       O  0.18368512  0.16454882  0.66309504    -0.74300
Al2419     Al  0.21075547  0.22434918  0.66321302     1.90100
O2420       O  0.15597031  0.18684577  0.66173036    -0.73400
O2421       O  0.17893136  0.15817233  0.59667990    -0.73200
O2422       O  0.15870836  0.18770202  0.59503594    -0.78900
O2423       O  0.21798518  0.18128794  0.58768192    -0.77100
O2424       O  0.20055410  0.20455770  0.62704546    -1.13200
O2425       O  0.24998019  0.22486186  0.61141217    -0.72400
C2426       C  0.25624190  0.22807042  0.64250992     0.98300
C2427       C  0.16020929  0.20771251  0.67110546     0.94700
Al2428     Al  0.17183226  0.17674712  0.62904427     1.55600
O2429       O  0.22375286  0.25464635  0.63728268    -0.77000
C2430       C  0.19890187  0.16066351  0.58555927     0.98900
C2431       C  0.19397063  0.17505234  0.69055910     0.93800
O2432       O  0.20026051  0.19740264  0.69584428    -0.82300
O2433       O  0.35661682  0.44556822  0.92401698    -0.81800
C2434       C  0.31163903  0.47977045  0.51803551     0.97600
O2435       O  0.32715951  0.47343151  0.52744111    -0.70900
O2436       O  0.31603416  0.43058751  0.99996450    -0.74500
Al2437     Al  0.34513917  0.46063056  0.99794729     1.49000
C2438       C  0.30410117  0.41472434  0.97790087     0.92800
O2439       O  0.30012970  0.45087865  0.91399536    -0.80700
O2440       O  0.36634805  0.50885200  0.92223449    -0.74300
Al2441     Al  0.32931703  0.44957310  0.92174672     1.90100
O2442       O  0.31704871  0.49045485  0.91756481    -0.73400
O2443       O  0.36493674  0.51581036  0.98815655    -0.73200
O2444       O  0.31485954  0.49000611  0.98482259    -0.78900
O2445       O  0.37627439  0.49115736  0.50502768    -0.77100
O2446       O  0.33829737  0.46936202  0.95790534    -1.13200
O2447       O  0.36379880  0.44642563  0.97891347    -0.72400
C2448       C  0.36815130  0.44320189  0.94840877     0.98300
C2449       C  0.30021947  0.47032751  0.90630511     0.94700
Al2450     Al  0.34057096  0.49870041  0.95366898     1.55600
O2451       O  0.30892633  0.41935979  0.94655750    -0.77000
C2452       C  0.37953729  0.51249639  0.50610461     0.98900
C2453       C  0.36575568  0.49804684  0.89487521     0.93800
O2454       O  0.34885573  0.47604487  0.88962390    -0.82300
O2455       O  0.53444705  0.65418023  0.64780272    -0.81800
C2456       C  0.53123923  0.68695785  0.78048968     0.97600
O2457       O  0.51427524  0.67964873  0.75853907    -0.70900
O2458       O  0.52673219  0.70261619  0.70081106    -0.74500
Al2459     Al  0.51159157  0.66897345  0.71239355     1.49000
C2460       C  0.53972303  0.71255586  0.67492861     0.92800
O2461       O  0.58566553  0.70424627  0.70155580    -0.80700
O2462       O  0.55094852  0.63278839  0.72227631    -0.74300
Al2463     Al  0.55925303  0.67891854  0.67584806     1.90100
O2464       O  0.58281623  0.68006474  0.74422476    -0.73400
O2465       O  0.51610616  0.63188694  0.76077835    -0.73200
O2466       O  0.54725711  0.68044170  0.77835284    -0.78900
O2467       O  0.49196058  0.63560451  0.72403485    -0.77100
O2468       O  0.53966091  0.66830213  0.71237146    -1.13200
O2469       O  0.50355326  0.65826121  0.66603973    -0.72400
C2470       C  0.51221986  0.64893056  0.64550990     0.98300
C2471       C  0.59452947  0.70003801  0.72806078     0.94700
Al2472     Al  0.54847336  0.65715558  0.74846618     1.55600
O2473       O  0.55086876  0.70289466  0.66091462    -0.77000
C2474       C  0.49533634  0.62362749  0.74692998     0.98900
C2475       C  0.56448183  0.63745122  0.69633813     0.93800
O2476       O  0.57254782  0.65756041  0.68082167    -0.82300
O2477       O  0.66478196  0.52514029  0.61122395    -0.81800
C2478       C  0.68892584  0.52207837  0.97885522     0.97600
O2479       O  0.69142828  0.51339787  0.50796442    -0.70900
O2480       O  0.69448218  0.51138089  0.57498128    -0.74500
Al2481     Al  0.66845147  0.50311940  0.54351331     1.49000
C2482       C  0.71296932  0.53152744  0.58209401     0.92800
O2483       O  0.69949746  0.58151580  0.55132561    -0.80700
O2484       O  0.63851871  0.55104557  0.53218851    -0.74300
Al2485     Al  0.68166205  0.55181626  0.57802405     1.90100
O2486       O  0.68357168  0.57033511  0.50038647    -0.73400
O2487       O  0.62563185  0.50827394  0.00447923    -0.73200
O2488       O  0.67300313  0.52880679  0.97396125    -0.78900
O2489       O  0.64244049  0.48530999  0.51238892    -0.77100
O2490       O  0.66890339  0.53169030  0.54253373    -1.13200
O2491       O  0.64529609  0.49201831  0.57890243    -0.72400
C2492       C  0.64743869  0.50315006  0.60664234     0.98300
C2493       C  0.69906345  0.58615525  0.52002559     0.94700
Al2494     Al  0.65652283  0.53895860  0.50631525     1.55600
O2495       O  0.71171740  0.55073899  0.57839681    -0.77000
C2496       C  0.62425442  0.48781324  0.00108798     0.98900
C2497       C  0.63907632  0.55654455  0.56330911     0.93800
O2498       O  0.65466667  0.55643758  0.58323423    -0.82300
O2499       O  0.81239700  0.80473720  0.94661538    -0.81800
C2500       C  0.81105700  0.83202890  0.81492739     0.97600
O2501       O  0.82033091  0.84232993  0.84296616    -0.70900
O2502       O  0.82370826  0.84775539  0.90939408    -0.74500
Al2503     Al  0.83182609  0.82996144  0.87749473     1.49000
C2504       C  0.80346578  0.84499003  0.91942219     0.92800
O2505       O  0.75362926  0.78151163  0.89184621    -0.80700
O2506       O  0.78132616  0.75210659  0.86694257    -0.74300
Al2507     Al  0.78454870  0.79400593  0.91572541     1.90100
O2508       O  0.76374513  0.78046383  0.83864311    -0.73400
O2509       O  0.82442152  0.78176713  0.83904290    -0.73200
O2510       O  0.80509152  0.80976233  0.80981924    -0.78900
O2511       O  0.84896688  0.82081914  0.84527184    -0.77100
O2512       O  0.80333555  0.80185873  0.87837741    -1.13200
O2513       O  0.84436897  0.81891188  0.91210499    -0.72400
C2514       C  0.83475747  0.81090125  0.94102755     0.98300
C2515       C  0.74842744  0.77890949  0.86045607     0.94700
Al2516     Al  0.79440959  0.78258247  0.84178882     1.55600
O2517       O  0.78460471  0.82423646  0.91734014    -0.77000
C2518       C  0.84538442  0.80026509  0.83537031     0.98900
C2519       C  0.77800957  0.74694152  0.89839370     0.93800
O2520       O  0.78115843  0.76289788  0.91999293    -0.82300
C2521       C  0.74190489  0.63533545  0.96015664    -0.22500
C2522       C  0.73972343  0.65539871  0.97081667     0.09500
C2523       C  0.72742159  0.65368770  0.49981216     0.09900
C2524       C  0.71547445  0.63118338  0.51748950    -0.17400
C2525       C  0.71612247  0.61055485  0.50528195    -0.27800
C2526       C  0.72971534  0.61280620  0.97750688     0.18200
C2527       C  0.75105756  0.67805090  0.94964397     0.12200
C2528       C  0.72530962  0.67510116  0.51271730    -0.12200
H2529       H  0.70448265  0.62931702  0.53979828     0.12500
C2530       C  0.73228495  0.59160083  0.96469947    -0.23000
H2531       H  0.75264715  0.63714408  0.93759047     0.08100
C2532       C  0.77463879  0.69782313  0.95686397     0.04500
C2533       C  0.78365549  0.71959314  0.93789322    -0.20200
C2534       C  0.76985648  0.72195415  0.91139689    -0.12500
C2535       C  0.74672678  0.70160269  0.90295165     0.13200
C2536       C  0.73770259  0.67987719  0.92216052    -0.23000
C2537       C  0.79017363  0.69601326  0.98476292    -0.06000
H2538       H  0.80130557  0.73517241  0.94442461     0.14700
C2539       C  0.73040114  0.70241172  0.87532970    -0.16200
H2540       H  0.71972003  0.66450812  0.91640134     0.09000
H2541       H  0.74540726  0.59705709  0.94306605     0.06900
H2542       H  0.71429041  0.57668316  0.95562960     0.08100
H2543       H  0.73913942  0.58458286  0.98551920     0.07100
H2544       H  0.71634138  0.68080187  0.49315568     0.02000
H2545       H  0.74386938  0.69072762  0.51828179     0.02500
H2546       H  0.71420096  0.67044343  0.53644528     0.06000
H2547       H  0.80818159  0.71313260  0.98701475     0.05000
H2548       H  0.79368636  0.68072119  0.97918136    -0.00800
H2549       H  0.78056971  0.69252953  0.00962428     0.00700
H2550       H  0.72690310  0.68819622  0.85596145     0.04300
H2551       H  0.73830292  0.72029601  0.86209986     0.06300
H2552       H  0.71257422  0.69855543  0.88656512     0.07100
C2553       C  0.65898969  0.72619403  0.76104489    -0.22500
C2554       C  0.65979568  0.74332614  0.78454900     0.09500
C2555       C  0.64069639  0.74903769  0.78496335     0.09900
C2556       C  0.62045234  0.73638400  0.76309031    -0.17400
C2557       C  0.61887614  0.71800754  0.74128381    -0.27800
C2558       C  0.63873727  0.71342485  0.73944953     0.18200
C2559       C  0.68068152  0.75451727  0.80877667     0.12200
C2560       C  0.64118689  0.76760407  0.80955042    -0.12200
H2561       H  0.60508087  0.73969314  0.76460900     0.12500
C2562       C  0.63879503  0.69473626  0.71557530    -0.23000
H2563       H  0.67395275  0.72221497  0.76029008     0.08100
C2564       C  0.68161834  0.74163238  0.83781102     0.04500
C2565       C  0.70338211  0.75132008  0.85709316    -0.20200
C2566       C  0.72410784  0.77350527  0.84772750    -0.12500
C2567       C  0.72231099  0.78734528  0.82046609     0.13200
C2568       C  0.70071325  0.77755394  0.80109868    -0.23000
C2569       C  0.65994257  0.71729290  0.84763869    -0.06000
H2570       H  0.70480379  0.74070317  0.87789641     0.14700
C2571       C  0.74312712  0.81229514  0.81076547    -0.16200
H2572       H  0.69978294  0.78761654  0.77918785     0.09000
H2573       H  0.63938145  0.68003333  0.73055214     0.06900
H2574       H  0.65529258  0.70369703  0.69893123     0.08100
H2575       H  0.62243558  0.68630372  0.69877502     0.07100
H2576       H  0.65763025  0.78575617  0.80462158     0.02000
H2577       H  0.64190447  0.76183198  0.83609803     0.02500
H2578       H  0.62460098  0.76956323  0.80701635     0.06000
H2579       H  0.66360294  0.70980023  0.87119302     0.05000
H2580       H  0.65568561  0.70383214  0.82685108    -0.00800
H2581       H  0.64367446  0.71949487  0.85227326     0.00700
H2582       H  0.74990227  0.81158933  0.78488280     0.04300
H2583       H  0.75868796  0.81913814  0.82893143     0.06300
H2584       H  0.73651398  0.82572339  0.81067851     0.07100
C2585       C  0.60865423  0.59324500  0.58928765    -0.22500
C2586       C  0.59771904  0.58158786  0.62017523     0.09500
C2587       C  0.59735422  0.55970433  0.62917793     0.09900
C2588       C  0.60920702  0.55077643  0.60806847    -0.17400
C2589       C  0.62153903  0.56323137  0.57818527    -0.27800
C2590       C  0.62073179  0.58447279  0.56821234     0.18200
C2591       C  0.58858643  0.59375678  0.64378150     0.12200
C2592       C  0.58546859  0.54642601  0.66180738    -0.12200
H2593       H  0.61005724  0.53465835  0.61593200     0.12500
C2594       C  0.63367438  0.59930578  0.53698138    -0.23000
H2595       H  0.60880046  0.61004084  0.58239710     0.08100
C2596       C  0.60500296  0.61353082  0.66444927     0.04500
C2597       C  0.59610208  0.62621592  0.68380666    -0.20200
C2598       C  0.57122884  0.61971270  0.68289698    -0.12500
C2599       C  0.55458022  0.59922182  0.66340652     0.13200
C2600       C  0.56347056  0.58635205  0.64429489    -0.23000
C2601       C  0.63201319  0.62162268  0.66541693    -0.06000
H2602       H  0.60881003  0.64197252  0.69862238     0.14700
C2603       C  0.52765508  0.59129369  0.66064718    -0.16200
H2604       H  0.55088995  0.57108388  0.62855883     0.09000
H2605       H  0.64762172  0.61816174  0.54469640     0.06900
H2606       H  0.62007270  0.60035521  0.51995301     0.08100
H2607       H  0.64319863  0.59157457  0.52213169     0.07100
H2608       H  0.56565252  0.54080421  0.66160085     0.02000
H2609       H  0.59446110  0.55866300  0.68389236     0.02500
H2610       H  0.58702986  0.52969815  0.66515300     0.06000
H2611       H  0.64220052  0.63721138  0.68316492     0.05000
H2612       H  0.64015072  0.62757814  0.63964000    -0.00800
H2613       H  0.63453497  0.60618848  0.67404743     0.00700
H2614       H  0.52295703  0.59223822  0.63360808     0.04300
H2615       H  0.52237262  0.60281163  0.67576994     0.06300
H2616       H  0.51651351  0.57210236  0.66977613     0.07100
C2617       C  0.42529930  0.54462015  0.85202931    -0.22500
C2618       C  0.41829415  0.54161418  0.81776181     0.09500
C2619       C  0.39498014  0.52226315  0.80824345     0.09900
C2620       C  0.37833165  0.50760858  0.83380628    -0.17400
C2621       C  0.38469513  0.51183845  0.86851760    -0.27800
C2622       C  0.40895932  0.52993014  0.87754573     0.18200
C2623       C  0.43545035  0.56027807  0.79330466     0.12200
C2624       C  0.38783426  0.51703593  0.77128022    -0.12200
H2625       H  0.36005202  0.49332621  0.82670807     0.12500
C2626       C  0.41803816  0.53381478  0.91389169    -0.23000
H2627       H  0.44352381  0.55916063  0.85893820     0.08100
C2628       C  0.43346612  0.58117341  0.78554801     0.04500
C2629       C  0.45272387  0.60088714  0.76817301    -0.20200
C2630       C  0.47422125  0.60052369  0.75929937    -0.12500
C2631       C  0.47554460  0.57898887  0.76519509     0.13200
C2632       C  0.45618881  0.55919803  0.78242737    -0.23000
C2633       C  0.41181108  0.58339490  0.79756718    -0.06000
H2634       H  0.45165830  0.61733668  0.76342680     0.14700
C2635       C  0.49685001  0.57612626  0.75344437    -0.16200
H2636       H  0.45762920  0.54311081  0.78840264     0.09000
H2637       H  0.40867462  0.54150406  0.92931038     0.06900
H2638       H  0.43808490  0.54695205  0.91548494     0.08100
H2639       H  0.41464239  0.51616383  0.92510317     0.07100
H2640       H  0.40092659  0.51286578  0.75790846     0.02000
H2641       H  0.38827384  0.53311161  0.75891080     0.02500
H2642       H  0.36904252  0.50108666  0.76826678     0.06000
H2643       H  0.41349014  0.60118825  0.78993800     0.05000
H2644       H  0.41054564  0.58207337  0.82578776    -0.00800
H2645       H  0.39455131  0.56857860  0.78647267     0.00700
H2646       H  0.50633006  0.57382530  0.77585718     0.04300
H2647       H  0.51038859  0.59188870  0.73819115     0.06300
H2648       H  0.48993372  0.55963530  0.73704832     0.07100
C2649       C  0.43620207  0.54885646  0.56292500    -0.22500
C2650       C  0.44230664  0.57297669  0.55513085     0.09500
C2651       C  0.42901940  0.57720902  0.52959605     0.09900
C2652       C  0.40903442  0.55717772  0.51372733    -0.17400
C2653       C  0.40206427  0.53282021  0.52237193    -0.27800
C2654       C  0.41639744  0.52870844  0.54686823     0.18200
C2655       C  0.46041245  0.59318982  0.57709712     0.12200
C2656       C  0.43572702  0.60292206  0.51955615    -0.12200
H2657       H  0.39859612  0.56063913  0.49466863     0.12500
C2658       C  0.40501447  0.50128091  0.06190614    -0.23000
H2659       H  0.44651217  0.54579736  0.58267055     0.08100
C2660       C  0.45256740  0.59969219  0.60696590     0.04500
C2661       C  0.46990233  0.61822950  0.62796632    -0.20200
C2662       C  0.49518706  0.63059567  0.62021026    -0.12500
C2663       C  0.50304267  0.62427500  0.58983952     0.13200
C2664       C  0.48550214  0.60562573  0.56866525    -0.23000
C2665       C  0.42579394  0.58681418  0.61694896    -0.06000
H2666       H  0.46357789  0.62264355  0.65114063     0.14700
C2667       C  0.52964857  0.63728052  0.57914567    -0.16200
H2668       H  0.49135056  0.60059882  0.54558419     0.09000
H2669       H  0.39153689  0.49301053  0.56766620     0.06900
H2670       H  0.41544537  0.50160551  0.08498161     0.08100
H2671       H  0.40770182  0.49003110  0.04246567     0.07100
H2672       H  0.45496059  0.61282490  0.51007297     0.02000
H2673       H  0.43408196  0.61281341  0.54188152     0.02500
H2674       H  0.42357643  0.60308697  0.49907438     0.06000
H2675       H  0.42275984  0.59409172  0.64110957     0.05000
H2676       H  0.41898731  0.56694366  0.62053026    -0.00800
H2677       H  0.41484725  0.58929995  0.59670581     0.00700
H2678       H  0.54074714  0.63357682  0.59774995     0.04300
H2679       H  0.53666157  0.65731682  0.57749760     0.06300
H2680       H  0.53215640  0.63100242  0.55380213     0.07100
C2681       C  0.22744606  0.30820489  0.54769555    -0.22500
C2682       C  0.25194917  0.32656197  0.55189762     0.09500
C2683       C  0.26616558  0.32424508  0.57808433     0.09900
C2684       C  0.25604696  0.30269184  0.59784358    -0.17400
C2685       C  0.23207420  0.28349926  0.59192713    -0.27800
C2686       C  0.21728770  0.28672237  0.56742687     0.18200
C2687       C  0.26238622  0.34808320  0.52867317     0.12200
C2688       C  0.29213879  0.34430977  0.58468250    -0.12200
H2689       H  0.26734368  0.30024065  0.61658577     0.12500
C2690       C  0.19070516  0.26789794  0.56151283    -0.23000
H2691       H  0.21633866  0.31039553  0.52832714     0.08100
C2692       C  0.27623870  0.34937256  0.49950201     0.04500
C2693       C  0.28790983  0.36992724  0.98181686    -0.20200
C2694       C  0.28534489  0.39019778  0.99034816    -0.12500
C2695       C  0.27021317  0.38943380  0.51720990     0.13200
C2696       C  0.25876694  0.36775890  0.53640884    -0.23000
C2697       C  0.27885517  0.32779685  0.48885029    -0.06000
H2698       H  0.30083897  0.37186489  0.96200653     0.14700
C2699       C  0.26497657  0.40963350  0.52648992    -0.16200
H2700       H  0.24736292  0.36639259  0.55800806     0.09000
H2701       H  0.18798427  0.26196965  0.53450935     0.06900
H2702       H  0.17905528  0.27622560  0.56685088     0.08100
H2703       H  0.18420266  0.25152159  0.57809123     0.07100
H2704       H  0.29220633  0.36150192  0.59127870     0.02000
H2705       H  0.30361533  0.34751818  0.56163970     0.02500
H2706       H  0.30063743  0.33958643  0.60609810     0.06000
H2707       H  0.29157232  0.33106139  0.96865964     0.05000
H2708       H  0.26120010  0.31051861  0.98459305    -0.00800
H2709       H  0.28777173  0.32286426  0.50941136     0.00700
H2710       H  0.24482124  0.40244653  0.52628458     0.04300
H2711       H  0.27322886  0.42505700  0.50809923     0.06300
H2712       H  0.27217703  0.41661710  0.55237361     0.07100
C2713       C  0.52708467  0.38722984  0.94093155    -0.22500
C2714       C  0.54121536  0.41142240  0.92923367     0.09500
C2715       C  0.53891756  0.41714663  0.89516777     0.09900
C2716       C  0.52315325  0.39836604  0.87320374    -0.17400
C2717       C  0.50986658  0.37388182  0.88424890    -0.27800
C2718       C  0.51145070  0.36825585  0.91881940     0.18200
C2719       C  0.56129460  0.42963420  0.95086702     0.12200
C2720       C  0.55389896  0.44291581  0.88160701    -0.12200
H2721       H  0.52175305  0.40270912  0.84681900     0.12500
C2722       C  0.49838661  0.34254246  0.93291399    -0.23000
H2723       H  0.52925954  0.38292430  0.96703030     0.08100
C2724       C  0.55861031  0.44643191  0.97157702     0.04500
C2725       C  0.57940327  0.46519736  0.98798123    -0.20200
C2726       C  0.60261863  0.46704312  0.98472314    -0.12500
C2727       C  0.60484554  0.44926669  0.96514532     0.13200
C2728       C  0.58417243  0.43099243  0.94831533    -0.23000
C2729       C  0.53386904  0.44446613  0.97629647    -0.06000
H2730       H  0.57752098  0.47841167  0.00345519     0.14700
C2731       C  0.62897165  0.44968475  0.96067760    -0.16200
H2732       H  0.58590352  0.41787937  0.93238899     0.09000
H2733       H  0.48592907  0.34132799  0.95386874     0.06900
H2734       H  0.51212559  0.33798043  0.94324538     0.08100
H2735       H  0.48735615  0.32847566  0.91375009     0.07100
H2736       H  0.57379961  0.44915325  0.88393682     0.02000
H2737       H  0.54968628  0.45543972  0.89629212     0.02500
H2738       H  0.54989475  0.44416403  0.85432516     0.06000
H2739       H  0.53490746  0.45891133  0.99358063     0.05000
H2740       H  0.52085355  0.42633157  0.98754101    -0.00800
H2741       H  0.52661051  0.44633905  0.95135610     0.00700
H2742       H  0.63527816  0.44636536  0.98553747     0.04300
H2743       H  0.64302203  0.46761866  0.95008028     0.06300
H2744       H  0.62731686  0.43520394  0.94294087     0.07100
C2745       C  0.58644111  0.46188738  0.64962329    -0.22500
C2746       C  0.59394205  0.45814867  0.68162033     0.09500
C2747       C  0.61917414  0.47127200  0.69025328     0.09900
C2748       C  0.63640873  0.48712878  0.66603807    -0.17400
C2749       C  0.62888012  0.48993551  0.63344438    -0.27800
C2750       C  0.60345297  0.47787496  0.62567671     0.18200
C2751       C  0.57501763  0.43883327  0.70400152     0.12200
C2752       C  0.62787934  0.46835669  0.72478864    -0.12200
H2753       H  0.65584980  0.49651221  0.67202579     0.12500
C2754       C  0.59349262  0.48158239  0.59250575    -0.23000
H2755       H  0.56709025  0.45194746  0.64307395     0.08100
C2756       C  0.55642307  0.44167737  0.71999476     0.04500
C2757       C  0.53677492  0.42145194  0.73636553    -0.20200
C2758       C  0.53529364  0.39836700  0.73738118    -0.12500
C2759       C  0.55459437  0.39591550  0.72216081     0.13200
C2760       C  0.57401868  0.41613777  0.70569642    -0.23000
C2761       C  0.55741403  0.46610540  0.71983320    -0.06000
H2762       H  0.52240389  0.42368367  0.74826730     0.14700
C2763       C  0.55468679  0.37195828  0.72175213    -0.16200
H2764       H  0.58823603  0.41405203  0.69298288     0.09000
H2765       H  0.57967908  0.48728023  0.59797155     0.06900
H2766       H  0.58447103  0.46413436  0.57801875     0.08100
H2767       H  0.60776005  0.49605109  0.57617141     0.07100
H2768       H  0.62334573  0.44907315  0.72866584     0.02000
H2769       H  0.61876084  0.47342514  0.74488298     0.02500
H2770       H  0.64808036  0.48025740  0.72758989     0.06000
H2771       H  0.54182439  0.46541015  0.73421164     0.05000
H2772       H  0.55659760  0.47179585  0.69329800    -0.00800
H2773       H  0.57479850  0.48011225  0.73184830     0.00700
H2774       H  0.57056696  0.37336763  0.70728242     0.04300
H2775       H  0.53770340  0.35754376  0.70944399     0.06300
H2776       H  0.55606456  0.36638710  0.74815714     0.07100
C2777       C  0.34574249  0.27060393  0.74632697    -0.22500
C2778       C  0.34730312  0.26154005  0.71427462     0.09500
C2779       C  0.37007762  0.26455294  0.70338113     0.09900
C2780       C  0.39098727  0.27771685  0.72390363    -0.17400
C2781       C  0.38976703  0.28800187  0.75515990    -0.27800
C2782       C  0.36666334  0.28388270  0.76690356     0.18200
C2783       C  0.32530033  0.25089192  0.69163343     0.12200
C2784       C  0.37238480  0.25420441  0.66990398    -0.12200
H2785       H  0.40865304  0.28075269  0.71494134     0.12500
C2786       C  0.36346797  0.29437658  0.79974163    -0.23000
H2787       H  0.32820974  0.26823048  0.75469608     0.08100
C2788       C  0.30515674  0.22718791  0.69708163     0.04500
C2789       C  0.28347168  0.21940711  0.67816264    -0.20200
C2790       C  0.28133862  0.23474615  0.65389171    -0.12500
C2791       C  0.30193518  0.25813477  0.64741702     0.13200
C2792       C  0.32369538  0.26576486  0.66615195    -0.23000
C2793       C  0.30634464  0.21036633  0.72344439    -0.06000
H2794       H  0.26757770  0.20166289  0.68360218     0.14700
C2795       C  0.30116444  0.27619503  0.62282359    -0.16200
H2796       H  0.33916872  0.28403932  0.66206362     0.09000
H2797       H  0.35050613  0.27921769  0.81659182     0.06900
H2798       H  0.35572906  0.30651301  0.79417200     0.08100
H2799       H  0.38082838  0.30532752  0.81387684     0.07100
H2800       H  0.36738045  0.26254191  0.64862773     0.02000
H2801       H  0.35990599  0.23404949  0.66976296     0.02500
H2802       H  0.39143327  0.25789246  0.66546515     0.06000
H2803       H  0.28908630  0.19237718  0.72425145     0.05000
H2804       H  0.30932203  0.21878956  0.74908073    -0.00800
H2805       H  0.32174851  0.20705976  0.71737209     0.00700
H2806       H  0.30474196  0.29299836  0.63677890     0.04300
H2807       H  0.28329865  0.26897226  0.60961784     0.06300
H2808       H  0.31561380  0.28124948  0.60311669     0.07100
C2809       C  0.39558954  0.40442746  0.92292391    -0.22500
C2810       C  0.41303037  0.42007840  0.89896334     0.09500
C2811       C  0.41882588  0.44476184  0.89702632     0.09900
C2812       C  0.40561605  0.45269919  0.91711836    -0.17400
C2813       C  0.38687036  0.43657994  0.93927291    -0.27800
C2814       C  0.38248145  0.41239793  0.94326858     0.18200
C2815       C  0.42408938  0.40978841  0.87532278     0.12200
C2816       C  0.43844570  0.46249739  0.87314254    -0.12200
H2817       H  0.40876942  0.47118652  0.91383298     0.12500
C2818       C  0.36319970  0.39419297  0.96717562    -0.23000
H2819       H  0.39149039  0.38554237  0.92481371     0.08100
C2820       C  0.44264988  0.40497244  0.88629056     0.04500
C2821       C  0.45025715  0.39227633  0.86467690    -0.20200
C2822       C  0.43961118  0.38397330  0.83235368    -0.12500
C2823       C  0.42184335  0.38991111  0.82062437     0.13200
C2824       C  0.41447176  0.40294846  0.84224740    -0.23000
C2825       C  0.45402122  0.41275054  0.92111318    -0.06000
H2826       H  0.46388942  0.38775891  0.87373233     0.14700
C2827       C  0.40913359  0.38157520  0.78668883    -0.16200
H2828       H  0.40022113  0.40677103  0.83386602     0.09000
H2829       H  0.37193278  0.38732676  0.98545480     0.06900
H2830       H  0.34900668  0.37848030  0.95241041     0.08100
H2831       H  0.35391153  0.40214857  0.98216877     0.07100
H2832       H  0.43350884  0.45616762  0.84644182     0.02000
H2833       H  0.45627485  0.46371456  0.87952228     0.02500
H2834       H  0.44078919  0.48117020  0.87502758     0.06000
H2835       H  0.46853117  0.40781680  0.92552591     0.05000
H2836       H  0.43974023  0.40364533  0.94108468    -0.00800
H2837       H  0.46249628  0.43292689  0.92367443     0.00700
H2838       H  0.38901968  0.36998711  0.79077981     0.04300
H2839       H  0.41531276  0.37072715  0.77177350     0.06300
H2840       H  0.41264147  0.39782464  0.77124502     0.07100
C2841       C  0.58973382  0.98670288  0.92389743    -0.22500
C2842       C  0.57793868  0.98688160  0.89350855     0.09500
C2843       C  0.55668381  0.96541289  0.88299480     0.09900
C2844       C  0.54862068  0.94380228  0.90183616    -0.17400
C2845       C  0.56138170  0.94306708  0.93089614    -0.27800
C2846       C  0.58167769  0.96496435  0.94280617     0.18200
C2847       C  0.58960476  0.00891173  0.87130139     0.12200
C2848       C  0.54291273  0.96514183  0.85136780    -0.12200
H2849       H  0.53298382  0.92703332  0.89278214     0.12500
C2850       C  0.59582219  0.96515010  0.97394514    -0.23000
H2851       H  0.60600778  0.00332099  0.93184373     0.08100
C2852       C  0.58829613  0.03014351  0.87864239     0.04500
C2853       C  0.60146139  0.05109792  0.85824094    -0.20200
C2854       C  0.61591147  0.05130522  0.83066695    -0.12500
C2855       C  0.61652382  0.02969820  0.82268958     0.13200
C2856       C  0.60317021  0.00872585  0.84297794    -0.23000
C2857       C  0.57333448  0.03077279  0.90823501    -0.06000
H2858       H  0.60131725  0.06777502  0.86468532     0.14700
C2859       C  0.63217475  0.02837897  0.79458150    -0.16200
H2860       H  0.60413397  0.99234072  0.83748658     0.09000
H2861       H  0.61155330  0.98371153  0.97912325     0.06900
H2862       H  0.60316586  0.95248132  0.97028510     0.08100
H2863       H  0.58354233  0.95926230  0.99656053     0.07100
H2864       H  0.55498408  0.96966230  0.82867678     0.02000
H2865       H  0.53675769  0.97884965  0.85386293     0.02500
H2866       H  0.52643274  0.94689882  0.84711806     0.06000
H2867       H  0.57405906  0.04874175  0.91015482     0.05000
H2868       H  0.58046873  0.02752518  0.93242174    -0.00800
H2869       H  0.55383296  0.01631640  0.90500032     0.00700
H2870       H  0.64500975  0.02284893  0.80555934     0.04300
H2871       H  0.64322446  0.04596803  0.78094768     0.06300
H2872       H  0.62022790  0.01437151  0.77571859     0.07100
C2873       C  0.55595731  0.76898056  0.61999614    -0.22500
C2874       C  0.53474217  0.77082121  0.62422699     0.09500
C2875       C  0.51666031  0.75536787  0.64777969     0.09900
C2876       C  0.51965350  0.73760182  0.66545105    -0.17400
C2877       C  0.54001994  0.73438548  0.65950253    -0.27800
C2878       C  0.55885291  0.75091377  0.63718924     0.18200
C2879       C  0.53005378  0.78611485  0.59988140     0.12200
C2880       C  0.49379587  0.75709359  0.65335275    -0.12200
H2881       H  0.50522759  0.72525345  0.68266409     0.12500
C2882       C  0.58193373  0.74965495  0.63102427    -0.23000
H2883       H  0.56976295  0.78098582  0.60178504     0.08100
C2884       C  0.53933526  0.81141294  0.60449397     0.04500
C2885       C  0.53500146  0.82482531  0.57932467    -0.20200
C2886       C  0.52228641  0.81367261  0.54901029    -0.12500
C2887       C  0.51222542  0.78788920  0.54535277     0.13200
C2888       C  0.51626911  0.77464195  0.57084210    -0.23000
C2889       C  0.55396560  0.82419825  0.63576198    -0.06000
H2890       H  0.54224449  0.84428803  0.58301582     0.14700
C2891       C  0.49715192  0.77378799  0.51494519    -0.16200
H2892       H  0.50900082  0.75508902  0.56785219     0.09000
H2893       H  0.59529245  0.76514756  0.61495166     0.06900
H2894       H  0.57750655  0.73248512  0.61747586     0.08100
H2895       H  0.59099792  0.75049238  0.65569817     0.07100
H2896       H  0.48330283  0.75322886  0.62919521     0.02000
H2897       H  0.49894036  0.77579791  0.66216361     0.02500
H2898       H  0.48154947  0.74376318  0.67284017     0.06000
H2899       H  0.55993418  0.84404740  0.63547836     0.05000
H2900       H  0.57062890  0.82229964  0.63711699    -0.00800
H2901       H  0.54260821  0.81589011  0.65890231     0.00700
H2902       H  0.49430890  0.77890732  0.00418153     0.04300
H2903       H  0.47472742  0.78598834  0.03039605     0.06300
H2904       H  0.48957319  0.75372458  0.51788693     0.07100
C2905       C  0.55176929  0.78695057  0.85696797    -0.22500
C2906       C  0.53896940  0.76337770  0.87118451     0.09500
C2907       C  0.52717498  0.75994450  0.90297241     0.09900
C2908       C  0.52739025  0.77999344  0.91907419    -0.17400
C2909       C  0.53948335  0.80349285  0.90435556    -0.27800
C2910       C  0.55221616  0.80709507  0.87315070     0.18200
C2911       C  0.53594474  0.74229387  0.85050393     0.12200
C2912       C  0.51401029  0.73503215  0.91952434    -0.12200
H2913       H  0.51774431  0.77725570  0.94302431     0.12500
C2914       C  0.56504973  0.83175751  0.85575956    -0.23000
H2915       H  0.56064592  0.78937827  0.83243984     0.08100
C2916       C  0.51620301  0.73056807  0.82754373     0.04500
C2917       C  0.51464742  0.71182172  0.80661095    -0.20200
C2918       C  0.53254719  0.70446883  0.80744543    -0.12500
C2919       C  0.55189211  0.71569134  0.83175554     0.13200
C2920       C  0.55330981  0.73450812  0.85282015    -0.23000
C2921       C  0.49702548  0.73828437  0.82451873    -0.06000
H2922       H  0.49958674  0.70342147  0.78862054     0.14700
C2923       C  0.57123725  0.70830378  0.83581388    -0.16200
H2924       H  0.56829097  0.74352991  0.87084155     0.09000
H2925       H  0.55177808  0.83828085  0.85104387     0.06900
H2926       H  0.57302241  0.83095083  0.83084557     0.08100
H2927       H  0.58030401  0.84517061  0.87197442     0.07100
H2928       H  0.52718607  0.72837114  0.92404504     0.02000
H2929       H  0.49901430  0.72188498  0.90273220     0.02500
H2930       H  0.50581173  0.73551919  0.94439739     0.06000
H2931       H  0.48281768  0.72726606  0.80525420     0.05000
H2932       H  0.50585270  0.75783362  0.81675179    -0.00800
H2933       H  0.48765672  0.73589456  0.84938656     0.00700
H2934       H  0.58206133  0.71211773  0.81203207     0.04300
H2935       H  0.56237722  0.68849354  0.84212560     0.06300
H2936       H  0.58435757  0.71860639  0.85660514     0.07100
C2937       C  0.79479716  0.93872460  0.98731031    -0.22500
C2938       C  0.80531122  0.92378743  0.49128352     0.09500
C2939       C  0.81642437  0.92655057  0.52335738     0.09900
C2940       C  0.81837939  0.94487509  0.54544170    -0.17400
C2941       C  0.80945067  0.96082959  0.53667465    -0.27800
C2942       C  0.79845595  0.95813732  0.50409003     0.18200
C2943       C  0.80114916  0.90363550  0.97270796     0.12200
C2944       C  0.82616107  0.90998387  0.53445569    -0.12200
H2945       H  0.82686269  0.94646093  0.57003785     0.12500
C2946       C  0.78865883  0.97447305  0.49234970    -0.23000
H2947       H  0.78497922  0.93561577  0.96344032     0.08100
C2948       C  0.78259911  0.87911621  0.97786047     0.04500
C2949       C  0.78319721  0.86046076  0.95899497    -0.20200
C2950       C  0.80215756  0.86575371  0.93543738    -0.12500
C2951       C  0.81996537  0.89064913  0.92909394     0.13200
C2952       C  0.81909499  0.90920088  0.94777039    -0.23000
C2953       C  0.76258419  0.87267153  0.00385139    -0.06000
H2954       H  0.76933880  0.84155627  0.96377481     0.14700
C2955       C  0.84005495  0.89805889  0.90289969    -0.16200
H2956       H  0.83898377  0.92820087  0.44625500     0.09000
H2957       H  0.77373888  0.97280031  0.01638502     0.06900
H2958       H  0.77853134  0.96848555  0.97253674     0.08100
H2959       H  0.80370145  0.99385787  0.49209425     0.07100
H2960       H  0.84071995  0.91184878  0.51658440     0.02000
H2961       H  0.81104440  0.89063687  0.53468255     0.02500
H2962       H  0.83421048  0.91452620  0.56043941     0.06000
H2963       H  0.74945487  0.85264519  0.00462371     0.05000
H2964       H  0.75217993  0.88216613  0.99739210    -0.00800
H2965       H  0.77067088  0.87846024  0.02964243     0.00700
H2966       H  0.83190828  0.89008560  0.87776514     0.04300
H2967       H  0.85302355  0.89180606  0.91087581     0.06300
H2968       H  0.85998745  0.91821782  0.40701278     0.07100
C2969       C  0.77751187  0.89270801  0.70686316    -0.22500
C2970       C  0.79979226  0.89509355  0.71818241     0.09500
C2971       C  0.82205507  0.91625715  0.70973112     0.09900
C2972       C  0.82153975  0.93525687  0.69177186    -0.17400
C2973       C  0.79922596  0.93382214  0.68209461    -0.27800
C2974       C  0.77687515  0.91173700  0.68870871     0.18200
C2975       C  0.79962972  0.87686693  0.74232307     0.12200
C2976       C  0.84638673  0.91916588  0.72083246    -0.12200
H2977       H  0.83879027  0.95174169  0.68646045     0.12500
C2978       C  0.75230044  0.90789416  0.67700655    -0.23000
H2979       H  0.76052353  0.87623606  0.71334482     0.08100
C2980       C  0.79768690  0.87956971  0.77763389     0.04500
C2981       C  0.80115736  0.86436937  0.80033342    -0.20200
C2982       C  0.80654019  0.84640439  0.78872883    -0.12500
C2983       C  0.80771837  0.84317835  0.75320028     0.13200
C2984       C  0.80427900  0.85854887  0.73039100    -0.23000
C2985       C  0.79267766  0.89903084  0.79141067    -0.06000
H2986       H  0.79977011  0.86665126  0.82747385     0.14700
C2987       C  0.81371173  0.82448337  0.73918522    -0.16200
H2988       H  0.80599200  0.85683365  0.70319320     0.09000
H2989       H  0.74788533  0.92078530  0.69029013     0.06900
H2990       H  0.73721495  0.88903876  0.68266896     0.08100
H2991       H  0.75264140  0.91070249  0.64901451     0.07100
H2992       H  0.84875464  0.90423087  0.70979033     0.02000
H2993       H  0.84703989  0.91835782  0.74906307     0.02500
H2994       H  0.86207369  0.93692947  0.71231209     0.06000
H2995       H  0.79191207  0.89875046  0.81970365     0.05000
H2996       H  0.77476252  0.89600544  0.78164721    -0.00800
H2997       H  0.80746200  0.91743584  0.78325905     0.00700
H2998       H  0.79897444  0.80574641  0.74607046     0.04300
H2999       H  0.83154339  0.82772997  0.74966371     0.06300
H3000       H  0.81522436  0.82546837  0.71095727     0.07100
C3001       C  0.73964872  0.06136347  0.66929058    -0.22500
C3002       C  0.75145022  0.07305461  0.69969615     0.09500
C3003       C  0.77298722  0.07293966  0.70961643     0.09900
C3004       C  0.78153090  0.06016450  0.68980793    -0.17400
C3005       C  0.76892048  0.04708497  0.66046639    -0.27800
C3006       C  0.74793682  0.04820904  0.64959043     0.18200
C3007       C  0.73984280  0.08360908  0.72193906     0.12200
C3008       C  0.78674375  0.08594020  0.74139717    -0.12200
H3009       H  0.79762444  0.05940028  0.69821979     0.12500
C3010       C  0.73274388  0.03464012  0.61897962    -0.23000
H3011       H  0.72305221  0.06146058  0.66176223     0.08100
C3012       C  0.73945039  0.10512347  0.71290178     0.04500
C3013       C  0.72621202  0.11293257  0.73318316    -0.20200
C3014       C  0.71304259  0.09962669  0.76211834    -0.12500
C3015       C  0.71413616  0.07850536  0.77182806     0.13200
C3016       C  0.72772807  0.07093647  0.75175085    -0.23000
C3017       C  0.75262046  0.11962147  0.68158233    -0.06000
H3018       H  0.72514612  0.12895638  0.72549708     0.14700
C3019       C  0.70005714  0.06257176  0.80164441    -0.16200
H3020       H  0.72793216  0.05431461  0.75854084     0.09000
H3021       H  0.73259915  0.04799351  0.60053568     0.06900
H3022       H  0.71356405  0.02185909  0.62714816     0.08100
H3023       H  0.73941422  0.02367802  0.60550875     0.07100
H3024       H  0.77496069  0.07768658  0.76418284     0.02000
H3025       H  0.79222074  0.10563115  0.73978067     0.02500
H3026       H  0.80365424  0.08466478  0.74479173     0.06000
H3027       H  0.75087788  0.13627334  0.67868694     0.05000
H3028       H  0.74478075  0.10823953  0.65844829    -0.00800
H3029       H  0.77246190  0.12549046  0.68335484     0.00700
H3030       H  0.68769406  0.04362961  0.79254054     0.04300
H3031       H  0.68868226  0.06890548  0.81497648     0.06300
H3032       H  0.71313512  0.06213814  0.82032454     0.07100
C3033       C  0.69596320  0.92115830  0.55182496    -0.22500
C3034       C  0.67740467  0.92713970  0.55628976     0.09500
C3035       C  0.67996897  0.94399512  0.58196959     0.09900
C3036       C  0.70188242  0.95584697  0.60095270    -0.17400
C3037       C  0.72112487  0.95103110  0.59490830    -0.27800
C3038       C  0.71782052  0.93292884  0.57082102     0.18200
C3039       C  0.65539903  0.91556118  0.53387636     0.12200
C3040       C  0.65976130  0.94978506  0.58881068    -0.12200
H3041       H  0.70454449  0.96989285  0.61918402     0.12500
C3042       C  0.73744931  0.92611771  0.56507159    -0.23000
H3043       H  0.69358634  0.90770249  0.53275856     0.08100
C3044       C  0.65398103  0.93195543  0.00596897     0.04500
C3045       C  0.63183091  0.92095366  0.98734482    -0.20200
C3046       C  0.61268124  0.89742654  0.99571556    -0.12500
C3047       C  0.61341040  0.88234470  0.52526095     0.13200
C3048       C  0.63558976  0.89290067  0.54347977    -0.23000
C3049       C  0.67432287  0.95704924  0.99587989    -0.06000
H3050       H  0.62902346  0.93118691  0.96726539     0.14700
C3051       C  0.59255866  0.85807653  0.53720362    -0.16200
H3052       H  0.63722045  0.88387689  0.56607086     0.09000
H3053       H  0.75449845  0.94209926  0.55542004     0.06900
H3054       H  0.73160957  0.91111879  0.54617042     0.08100
H3055       H  0.74151254  0.91985506  0.58944435     0.07100
H3056       H  0.64274622  0.93278947  0.59634962     0.02000
H3057       H  0.65603868  0.95748387  0.56555619     0.02500
H3058       H  0.66471647  0.96334266  0.60967966     0.06000
H3059       H  0.66918225  0.96429388  0.97338826     0.05000
H3060       H  0.69103927  0.95608211  0.98929721    -0.00800
H3061       H  0.67871617  0.97015580  0.01713864     0.00700
H3062       H  0.58579185  0.84481621  0.51579039     0.04300
H3063       H  0.57743596  0.86056814  0.54706300     0.06300
H3064       H  0.59826803  0.85010422  0.55818937     0.07100
C3065       C  0.56740673  0.11366043  0.69069395    -0.22500
C3066       C  0.56063256  0.13092971  0.70038091     0.09500
C3067       C  0.57227317  0.14627801  0.72850477     0.09900
C3068       C  0.59111637  0.14464078  0.74556220    -0.17400
C3069       C  0.59863048  0.12796037  0.73522172    -0.27800
C3070       C  0.58632968  0.11202255  0.70758560     0.18200
C3071       C  0.54388753  0.13487067  0.67778280     0.12200
C3072       C  0.56531446  0.16489777  0.73977202    -0.12200
H3073       H  0.60042062  0.15686684  0.76668231     0.12500
C3074       C  0.59396494  0.09432574  0.69430573    -0.23000
H3075       H  0.55856296  0.10217701  0.66873985     0.08100
C3076       C  0.55313714  0.14954021  0.64837903     0.04500
C3077       C  0.53696741  0.15210398  0.62643799    -0.20200
C3078       C  0.51147191  0.14027876  0.63272576    -0.12500
C3079       C  0.50228642  0.12615869  0.66306751     0.13200
C3080       C  0.51868680  0.12362062  0.68513576    -0.23000
C3081       C  0.58019342  0.16245042  0.63997935    -0.06000
H3082       H  0.54448175  0.16331451  0.60379470     0.14700
C3083       C  0.47540597  0.11339335  0.67231396    -0.16200
H3084       H  0.51181797  0.11255054  0.70802855     0.09000
H3085       H  0.58314654  0.08427403  0.67153433     0.06900
H3086       H  0.59097678  0.08053185  0.71418409     0.08100
H3087       H  0.61366847  0.10443582  0.68687511     0.07100
H3088       H  0.54559006  0.15545286  0.74703612     0.02000
H3089       H  0.56849385  0.17795028  0.71867605     0.02500
H3090       H  0.57628741  0.17555394  0.76209694     0.06000
H3091       H  0.58440164  0.17341241  0.61616415     0.05000
H3092       H  0.58634041  0.14881679  0.63647258    -0.00800
H3093       H  0.59083185  0.17505946  0.66101878     0.00700
H3094       H  0.46436828  0.10012588  0.65215302     0.04300
H3095       H  0.46931833  0.12710589  0.67547383     0.06300
H3096       H  0.47168087  0.10306899  0.69665129     0.07100
C3097       C  0.57825675  0.11962576  0.89449430    -0.22500
C3098       C  0.58439991  0.12783361  0.92805193     0.09500
C3099       C  0.60873921  0.13671383  0.93952373     0.09900
C3100       C  0.62686727  0.13884282  0.91627861    -0.17400
C3101       C  0.62105099  0.13244214  0.88186979    -0.27800
C3102       C  0.59618849  0.12173466  0.87126734     0.18200
C3103       C  0.56546257  0.12921551  0.94916879     0.12200
C3104       C  0.61552627  0.14424006  0.97608061    -0.12200
H3105       H  0.64573460  0.14643158  0.92463308     0.12500
C3106       C  0.58829448  0.11233857  0.83548328    -0.23000
H3107       H  0.55944444  0.11244230  0.88607767     0.08100
C3108       C  0.56323911  0.15045209  0.94862616     0.04500
C3109       C  0.54401898  0.15067594  0.96657690    -0.20200
C3110       C  0.52632118  0.12991828  0.98439930    -0.12500
C3111       C  0.52842979  0.10844165  0.98457638     0.13200
C3112       C  0.54811189  0.10847673  0.96712225    -0.23000
C3113       C  0.58078460  0.17270616  0.92822112    -0.06000
H3114       H  0.54244704  0.16707678  0.96581833     0.14700
C3115       C  0.51025673  0.08550135  0.00314347    -0.16200
H3116       H  0.54972715  0.09209358  0.96685386     0.09000
H3117       H  0.59587447  0.12780960  0.81714967     0.06900
H3118       H  0.56798461  0.10256722  0.83270947     0.08100
H3119       H  0.59476412  0.09933160  0.82878761     0.07100
H3120       H  0.60435273  0.12836293  0.99306723     0.02000
H3121       H  0.61194483  0.15935292  0.98253563     0.02500
H3122       H  0.63524828  0.15063558  0.98097250     0.06000
H3123       H  0.57632457  0.18768051  0.93028287     0.05000
H3124       H  0.57983259  0.16777008  0.90088890    -0.00800
H3125       H  0.59984059  0.17978264  0.93751876     0.00700
H3126       H  0.49177734  0.07796219  0.99146152     0.04300
H3127       H  0.50943144  0.08966706  0.03043594     0.06300
H3128       H  0.52115329  0.07578371  0.50867921     0.07100
C3129       C  0.48356640  0.24904228  0.88771371    -0.22500
C3130       C  0.46128337  0.22693860  0.88743262     0.09500
C3131       C  0.44097120  0.22543507  0.86985838     0.09900
C3132       C  0.44346365  0.24630743  0.85293828    -0.17400
C3133       C  0.46580385  0.26869680  0.85335162    -0.27800
C3134       C  0.48619230  0.26995716  0.87107362     0.18200
C3135       C  0.45951937  0.20660447  0.90862799     0.12200
C3136       C  0.41675780  0.20185374  0.86906680    -0.12200
H3137       H  0.42781522  0.24513996  0.83945662     0.12500
C3138       C  0.51058770  0.29333192  0.87394369    -0.23000
H3139       H  0.49890860  0.25002337  0.90183604     0.08100
C3140       C  0.47035853  0.19258286  0.89849616     0.04500
C3141       C  0.47241068  0.17690238  0.92224875    -0.20200
C3142       C  0.46418737  0.17537481  0.95588894    -0.12500
C3143       C  0.45165931  0.18805137  0.96515567     0.13200
C3144       C  0.44974480  0.20369543  0.94147155    -0.23000
C3145       C  0.48029397  0.19471533  0.86296287    -0.06000
H3146       H  0.48161458  0.16684521  0.91508454     0.14700
C3147       C  0.44007468  0.18557091  0.99974242    -0.16200
H3148       H  0.44123834  0.21434116  0.94904501     0.09000
H3149       H  0.51923107  0.29910346  0.84842472     0.06900
H3150       H  0.52369274  0.29101535  0.89045617     0.08100
H3151       H  0.50792703  0.30799564  0.88528646     0.07100
H3152       H  0.40952642  0.19637353  0.89536570     0.02000
H3153       H  0.41933099  0.18717642  0.85753764     0.02500
H3154       H  0.40282377  0.20369500  0.85382710     0.06000
H3155       H  0.48789639  0.18227455  0.85908045     0.05000
H3156       H  0.49521298  0.21376897  0.85811088    -0.00800
H3157       H  0.46532596  0.18984620  0.84417456     0.00700
H3158       H  0.44919431  0.20288139  0.51315681     0.04300
H3159       H  0.43971259  0.17069839  0.51465924     0.06300
H3160       H  0.42049957  0.18044942  0.99650954     0.07100
C3161       C  0.48235612  0.22991549  0.64746350    -0.22500
C3162       C  0.46470037  0.23662249  0.63968172     0.09500
C3163       C  0.44743352  0.22411938  0.61362435     0.09900
C3164       C  0.44778154  0.20457639  0.59658520    -0.17400
C3165       C  0.46551469  0.19784424  0.60442040    -0.27800
C3166       C  0.48311166  0.21082808  0.63011835     0.18200
C3167       C  0.46412912  0.25589865  0.66084487     0.12200
C3168       C  0.42871724  0.23142046  0.60401171    -0.12200
H3169       H  0.43435192  0.19469501  0.57683488     0.12500
C3170       C  0.50217983  0.20405570  0.64038825    -0.23000
H3171       H  0.49546923  0.23954978  0.66766315     0.08100
C3172       C  0.45321077  0.25024299  0.69346254     0.04500
C3173       C  0.45634940  0.26928746  0.71508937    -0.20200
C3174       C  0.47019798  0.29394356  0.70504531    -0.12500
C3175       C  0.48020537  0.29962065  0.67172287     0.13200
C3176       C  0.47699551  0.28043544  0.65001660    -0.23000
C3177       C  0.43873774  0.22410739  0.70575822    -0.06000
H3178       H  0.44846967  0.26494056  0.74051400     0.14700
C3179       C  0.49544466  0.32551070  0.65880095    -0.16200
H3180       H  0.48546965  0.28471624  0.62497186     0.09000
H3181       H  0.51338068  0.21513434  0.66229636     0.06900
H3182       H  0.51496697  0.20736916  0.61889371     0.08100
H3183       H  0.49304559  0.18444902  0.64797998     0.07100
H3184       H  0.43823932  0.25079887  0.59528003     0.02000
H3185       H  0.41706553  0.22948896  0.62640698     0.02500
H3186       H  0.41657979  0.21985106  0.58310017     0.06000
H3187       H  0.43118823  0.22289932  0.73175486     0.05000
H3188       H  0.45071551  0.21576453  0.70654885    -0.00800
H3189       H  0.42311792  0.21338853  0.68822487     0.00700
H3190       H  0.51406483  0.32894867  0.65184794     0.04300
H3191       H  0.49772423  0.33951654  0.67768158     0.06300
H3192       H  0.48662273  0.32802625  0.63577966     0.07100
C3193       C  0.30270633  0.08467929  0.95157915    -0.22500
C3194       C  0.32250800  0.08066964  0.94606904     0.09500
C3195       C  0.32084443  0.06438113  0.92003652     0.09900
C3196       C  0.29913597  0.05197162  0.90073190    -0.17400
C3197       C  0.27881946  0.05495547  0.90751134    -0.27800
C3198       C  0.28084064  0.07195630  0.93275257     0.18200
C3199       C  0.34379027  0.09164255  0.96987412     0.12200
C3200       C  0.34143022  0.05900197  0.91396846    -0.12200
H3201       H  0.29736492  0.03853851  0.88202640     0.12500
C3202       C  0.26004945  0.07668358  0.94092875    -0.23000
H3203       H  0.30398719  0.09715631  0.97152821     0.08100
C3204       C  0.36593218  0.11308419  0.96162056     0.04500
C3205       C  0.38667563  0.12018872  0.98232746    -0.20200
C3206       C  0.38557351  0.10516264  0.51021787    -0.12500
C3207       C  0.36313113  0.08424931  0.51954050     0.13200
C3208       C  0.34232151  0.07700743  0.49884577    -0.23000
C3209       C  0.36781140  0.12815667  0.93067370    -0.06000
H3210       H  0.40408769  0.13573002  0.97476887     0.14700
C3211       C  0.36070534  0.06827077  0.54964408    -0.16200
H3212       H  0.32537377  0.06038145  0.50502070     0.09000
H3213       H  0.26646413  0.09652271  0.93790569     0.06900
H3214       H  0.25397797  0.07120265  0.96768362     0.08100
H3215       H  0.24394971  0.06660913  0.92396651     0.07100
H3216       H  0.34489872  0.05137335  0.93752429     0.02000
H3217       H  0.35845322  0.07605363  0.90674949     0.02500
H3218       H  0.33695683  0.04547078  0.89318635     0.06000
H3219       H  0.38645208  0.14444695  0.92805346     0.05000
H3220       H  0.35434127  0.13467365  0.93283977    -0.00800
H3221       H  0.36383734  0.11698102  0.90724772     0.00700
H3222       H  0.34675933  0.06777536  0.56756659     0.04300
H3223       H  0.37806534  0.07467016  0.56387953     0.06300
H3224       H  0.35453638  0.04935485  0.54073415     0.07100
C3225       C  0.19079203  0.05776663  0.51971479    -0.22500
C3226       C  0.19566530  0.07858733  0.00882523     0.09500
C3227       C  0.19520688  0.08234312  0.97343146     0.09900
C3228       C  0.19287567  0.06415637  0.95071840    -0.17400
C3229       C  0.19097615  0.04204028  0.96215728    -0.27800
C3230       C  0.19137341  0.03821435  0.99775940     0.18200
C3231       C  0.19719218  0.09981215  0.53117337     0.12200
C3232       C  0.19679870  0.10545998  0.95948357    -0.12200
H3233       H  0.19280397  0.06746047  0.92358368     0.12500
C3234       C  0.18194691  0.01441668  0.51175058    -0.23000
H3235       H  0.18718255  0.05390474  0.54668482     0.08100
C3236       C  0.17532703  0.09975788  0.53974472     0.04500
C3237       C  0.17656038  0.11941903  0.55832993    -0.20200
C3238       C  0.19919159  0.13947186  0.56856018    -0.12500
C3239       C  0.22109891  0.13887601  0.56117788     0.13200
C3240       C  0.21973453  0.11906096  0.54261383    -0.23000
C3241       C  0.15069212  0.07925423  0.52836393    -0.06000
H3242       H  0.15960924  0.11939287  0.56395509     0.14700
C3243       C  0.24601670  0.15886686  0.57259973    -0.16200
H3244       H  0.23645860  0.11889418  0.53605706     0.09000
H3245       H  0.17842336  0.01340638  0.53960786     0.06900
H3246       H  0.19710650  0.01042288  0.50751000     0.08100
H3247       H  0.17141522  0.99888884  0.00253797     0.07100
H3248       H  0.21465920  0.12156046  0.96658009     0.02000
H3249       H  0.18158391  0.10768925  0.96998144     0.02500
H3250       H  0.19540364  0.10509445  0.93124016     0.06000
H3251       H  0.13540406  0.08212383  0.53682767     0.05000
H3252       H  0.14756993  0.06162326  0.53926030    -0.00800
H3253       H  0.14635921  0.06730515  0.02093301     0.00700
H3254       H  0.26072577  0.15457365  0.56622839     0.04300
H3255       H  0.24608915  0.16112056  0.60066276     0.06300
H3256       H  0.25067395  0.17636611  0.55967997     0.07100
C3257       C  0.22012911  0.11233824  0.80646368    -0.22500
C3258       C  0.20037732  0.10885927  0.78587718     0.09500
C3259       C  0.17971320  0.08521403  0.78278002     0.09900
C3260       C  0.17971703  0.06533960  0.79900145    -0.17400
C3261       C  0.19995972  0.06840336  0.81822456    -0.27800
C3262       C  0.22013806  0.09240094  0.82293850     0.18200
C3263       C  0.20262531  0.12916404  0.76404232     0.12200
C3264       C  0.15780840  0.08088832  0.76169507    -0.12200
H3265       H  0.16406408  0.04711893  0.79567717     0.12500
C3266       C  0.24147498  0.09722948  0.84565365    -0.23000
H3267       H  0.23586780  0.13060805  0.80883887     0.08100
C3268       C  0.19503564  0.14577968  0.77482335     0.04500
C3269       C  0.19338837  0.16158277  0.75075095    -0.20200
C3270       C  0.19880975  0.16068135  0.71621584    -0.12500
C3271       C  0.20803198  0.14513374  0.70611148     0.13200
C3272       C  0.20995133  0.12974694  0.73023814    -0.23000
C3273       C  0.18811440  0.14629932  0.81139596    -0.06000
H3274       H  0.18680044  0.17383139  0.75859082     0.14700
C3275       C  0.21589759  0.14455811  0.66990128    -0.16200
H3276       H  0.21605998  0.11711509  0.72233193     0.09000
H3277       H  0.25464897  0.11715523  0.84818032     0.06900
H3278       H  0.25169697  0.08860167  0.83489823     0.08100
H3279       H  0.23464515  0.08976325  0.87155172     0.07100
H3280       H  0.16338435  0.08602166  0.73473308     0.02000
H3281       H  0.15007117  0.09212683  0.77174596     0.02500
H3282       H  0.14307852  0.06136470  0.76228929     0.06000
H3283       H  0.18251957  0.16030682  0.81560141     0.05000
H3284       H  0.20408542  0.15072494  0.82809878    -0.00800
H3285       H  0.17253361  0.12813619  0.81877116     0.00700
H3286       H  0.22476386  0.13311580  0.66749849     0.04300
H3287       H  0.22933869  0.16339629  0.66132687     0.06300
H3288       H  0.19972929  0.13659553  0.65271388     0.07100
C3289       C  0.44661716  0.88396845  0.53652990    -0.22500
C3290       C  0.42789803  0.86217284  0.55067339     0.09500
C3291       C  0.42799241  0.84006900  0.54532528     0.09900
C3292       C  0.44717394  0.84032177  0.52663860    -0.17400
C3293       C  0.46674526  0.86227929  0.51376211    -0.27800
C3294       C  0.46615834  0.88441706  0.51827842     0.18200
C3295       C  0.40975046  0.86306569  0.57400879     0.12200
C3296       C  0.40832947  0.81633525  0.56056011    -0.12200
H3297       H  0.44556967  0.82760694  0.01652062     0.12500
C3298       C  0.48592090  0.90862753  0.50429445    -0.23000
H3299       H  0.44635534  0.90085749  0.54089600     0.08100
C3300       C  0.41550934  0.86902330  0.60864397     0.04500
C3301       C  0.39716805  0.86692012  0.63100381    -0.20200
C3302       C  0.37305534  0.85893124  0.61976488    -0.12500
C3303       C  0.36732224  0.85322465  0.58485033     0.13200
C3304       C  0.38590897  0.85567500  0.56233213    -0.23000
C3305       C  0.44087984  0.87701119  0.62222900    -0.06000
H3306       H  0.40166887  0.87140367  0.65765326     0.14700
C3307       C  0.34175533  0.84309907  0.57066192    -0.16200
H3308       H  0.38153010  0.85079126  0.53578475     0.09000
H3309       H  0.48148826  0.92346939  0.50845468     0.06900
H3310       H  0.48791974  0.90714362  0.47644903     0.08100
H3311       H  0.50366409  0.91421787  0.51724162     0.07100
H3312       H  0.39006698  0.81202669  0.55051440     0.02000
H3313       H  0.40833566  0.81796378  0.58873919     0.02500
H3314       H  0.41129494  0.80077716  0.55433852     0.06000
H3315       H  0.44213456  0.88062643  0.65006395     0.05000
H3316       H  0.45451982  0.89412461  0.60923300    -0.00800
H3317       H  0.44566665  0.86246646  0.61763143     0.00700
H3318       H  0.34161309  0.85609771  0.55159185     0.04300
H3319       H  0.32771989  0.83956079  0.59029778     0.06300
H3320       H  0.33614133  0.82533756  0.55791788     0.07100
C3321       C  0.44208735  0.88186601  0.77891680    -0.22500
C3322       C  0.43661159  0.86332684  0.80304766     0.09500
C3323       C  0.41193804  0.84496299  0.80818394     0.09900
C3324       C  0.39324789  0.84588658  0.78977625    -0.17400
C3325       C  0.39848880  0.86476297  0.76626360    -0.27800
C3326       C  0.42335770  0.88263878  0.76002024     0.18200
C3327       C  0.45646133  0.86412736  0.82469676     0.12200
C3328       C  0.40529750  0.82448945  0.83343454    -0.12200
H3329       H  0.37427162  0.83205631  0.79446375     0.12500
C3330       C  0.43095321  0.90217236  0.73297802    -0.23000
H3331       H  0.46108882  0.89581609  0.77481231     0.08100
C3332       C  0.47055596  0.85331220  0.81465917     0.04500
C3333       C  0.48660155  0.85159746  0.83831013    -0.20200
C3334       C  0.48823454  0.85989613  0.87192393    -0.12500
C3335       C  0.47480563  0.87165005  0.88135022     0.13200
C3336       C  0.45935642  0.87383451  0.85750182    -0.23000
C3337       C  0.46802293  0.84295585  0.77940870    -0.06000
H3338       H  0.49700612  0.84277380  0.83103686     0.14700
C3339       C  0.47648980  0.88182145  0.91667413    -0.16200
H3340       H  0.44853767  0.88218603  0.86495154     0.09000
H3341       H  0.44414362  0.90102026  0.71524618     0.06900
H3342       H  0.44007277  0.92052626  0.74510752     0.08100
H3343       H  0.41543548  0.90029979  0.71729818     0.07100
H3344       H  0.41107475  0.83210536  0.85944500     0.02000
H3345       H  0.41467779  0.81409220  0.82641213     0.02500
H3346       H  0.38518925  0.81148335  0.83401289     0.06000
H3347       H  0.48018668  0.83499521  0.77567290     0.05000
H3348       H  0.47302745  0.85769195  0.76020247    -0.00800
H3349       H  0.44874347  0.82829020  0.77509010     0.00700
H3350       H  0.46644716  0.89217090  0.91862460     0.04300
H3351       H  0.49600039  0.89445282  0.92339818     0.06300
H3352       H  0.46818350  0.86665771  0.93549210     0.07100
C3353       C  0.25992616  0.89849373  0.78647080    -0.22500
C3354       C  0.26613174  0.92288872  0.78081093     0.09500
C3355       C  0.28351958  0.93661407  0.75524228     0.09900
C3356       C  0.29498049  0.92586117  0.73673613    -0.17400
C3357       C  0.28970824  0.90182710  0.74364233    -0.27800
C3358       C  0.27158307  0.88785337  0.76835195     0.18200
C3359       C  0.25461488  0.93388771  0.80241461     0.12200
C3360       C  0.29043328  0.96281569  0.74820241    -0.12200
H3361       H  0.30912872  0.93671051  0.71822318     0.12500
C3362       C  0.26436938  0.86160324  0.77546108    -0.23000
H3363       H  0.24629590  0.88792614  0.80572506     0.08100
C3364       C  0.23169707  0.93154772  0.79396119     0.04500
C3365       C  0.22247231  0.94384052  0.81357031    -0.20200
C3366       C  0.23568376  0.95870281  0.84133171    -0.12500
C3367       C  0.25828778  0.96031078  0.85058908     0.13200
C3368       C  0.26728039  0.94762076  0.83118347    -0.23000
C3369       C  0.21742979  0.91684070  0.76347729    -0.06000
H3370       H  0.20530264  0.94280192  0.80618343     0.14700
C3371       C  0.27423412  0.97633984  0.87913307    -0.16200
H3372       H  0.28485714  0.94928793  0.83768963     0.09000
H3373       H  0.24957790  0.85316896  0.79492760     0.06900
H3374       H  0.28036977  0.86038395  0.78502095     0.08100
H3375       H  0.25746200  0.85095472  0.75157066     0.07100
H3376       H  0.29837002  0.97399761  0.77149753     0.02000
H3377       H  0.27387157  0.96372617  0.74047523     0.02500
H3378       H  0.30425645  0.97093977  0.72744057     0.06000
H3379       H  0.19995426  0.91709892  0.76022589     0.05000
H3380       H  0.21289688  0.89749180  0.76660557    -0.00800
H3381       H  0.22858495  0.92451980  0.74000527     0.00700
H3382       H  0.27701546  0.96486875  0.89820503     0.04300
H3383       H  0.26641098  0.98636843  0.89248782     0.06300
H3384       H  0.29240988  0.99015176  0.86875789     0.07100
C3385       C  0.41216336  0.97035624  0.63058502    -0.22500
C3386       C  0.40874060  0.98998477  0.63960135     0.09500
C3387       C  0.39466685  0.98803517  0.66882320     0.09900
C3388       C  0.38359327  0.96609315  0.68771756    -0.17400
C3389       C  0.38574453  0.94590747  0.67743297    -0.27800
C3390       C  0.40091035  0.94835740  0.64919888     0.18200
C3391       C  0.41874853  0.01186414  0.61706916     0.12200
C3392       C  0.39008306  0.00854415  0.67883959    -0.12200
H3393       H  0.37160343  0.96402571  0.70888193     0.12500
C3394       C  0.40518832  0.92789422  0.63775025    -0.23000
H3395       H  0.42316316  0.97198528  0.60836953     0.08100
C3396       C  0.44115889  0.03322110  0.62436924     0.04500
C3397       C  0.44826831  0.05440268  0.60478326    -0.20200
C3398       C  0.43361069  0.05472674  0.57792362    -0.12500
C3399       C  0.41187465  0.03285559  0.56925275     0.13200
C3400       C  0.40480854  0.01163749  0.58891082    -0.23000
C3401       C  0.45740108  0.03374507  0.65303785    -0.06000
H3402       H  0.46506358  0.07111598  0.61111415     0.14700
C3403       C  0.39499647  0.03146517  0.54091728    -0.16200
H3404       H  0.38771327  0.99505877  0.58315464     0.09000
H3405       H  0.42523572  0.93457159  0.63686547     0.06900
H3406       H  0.39736507  0.92171385  0.61188971     0.08100
H3407       H  0.39689307  0.91192031  0.65526115     0.07100
H3408       H  0.38063588  0.01234273  0.65773833     0.02000
H3409       H  0.40773089  0.02540081  0.68433324     0.02500
H3410       H  0.37834326  0.00385368  0.70194230     0.06000
H3411       H  0.47430042  0.05194184  0.65521474     0.05000
H3412       H  0.46299872  0.01980074  0.64839209    -0.00800
H3413       H  0.44742995  0.02966885  0.67765906     0.00700
H3414       H  0.39347248  0.01778393  0.52180314     0.04300
H3415       H  0.40133395  0.04914876  0.52761241     0.06300
H3416       H  0.37645404  0.02554718  0.55150761     0.07100
C3417       C  0.88262346  0.78278939  0.77551950    -0.22500
C3418       C  0.90681755  0.79976931  0.78499282     0.09500
C3419       C  0.91062790  0.81581189  0.81243500     0.09900
C3420       C  0.89026453  0.81497788  0.82894589    -0.17400
C3421       C  0.86597430  0.79843944  0.81893218    -0.27800
C3422       C  0.86219633  0.78187160  0.79203635     0.18200
C3423       C  0.92757498  0.80250657  0.76301080     0.12200
C3424       C  0.93620463  0.83386145  0.82432637    -0.12200
H3425       H  0.89337462  0.82761720  0.84963646     0.12500
C3426       C  0.83680379  0.76408011  0.77922362    -0.23000
H3427       H  0.87972868  0.77079727  0.75409055     0.08100
C3428       C  0.93519112  0.78477905  0.76158250     0.04500
C3429       C  0.95345919  0.78763631  0.73791719    -0.20200
C3430       C  0.96399720  0.80760206  0.71513337    -0.12500
C3431       C  0.95699939  0.82586789  0.71781723     0.13200
C3432       C  0.93894089  0.82297083  0.74150335    -0.23000
C3433       C  0.92404009  0.76287449  0.78496810    -0.06000
H3434       H  0.95885455  0.77376459  0.73636939     0.14700
C3435       C  0.96857832  0.84879240  0.69618263    -0.16200
H3436       H  0.93311603  0.83654186  0.74267215     0.09000
H3437       H  0.82601521  0.75081219  0.79964154     0.06900
H3438       H  0.83737413  0.75341232  0.75706949     0.08100
H3439       H  0.82733843  0.77418994  0.77102083     0.07100
H3440       H  0.94659784  0.84708199  0.80368612     0.02000
H3441       H  0.94597303  0.82390490  0.83176617     0.02500
H3442       H  0.93591224  0.84449526  0.84671513     0.06000
H3443       H  0.93233960  0.75103820  0.78106784     0.05000
H3444       H  0.90400736  0.75164348  0.78014509    -0.00800
H3445       H  0.92708061  0.76909468  0.81189255     0.00700
H3446       H  0.96295879  0.84423857  0.66917051     0.04300
H3447       H  0.98891201  0.85807212  0.69833037     0.06300
H3448       H  0.96275065  0.86203243  0.70436220     0.07100
C3449       C  0.89591942  0.78361384  0.55360389    -0.22500
C3450       C  0.90060053  0.80331363  0.53218771     0.09500
C3451       C  0.92469663  0.82329853  0.52916336     0.09900
C3452       C  0.94377811  0.82287609  0.54712623    -0.17400
C3453       C  0.93942980  0.80267446  0.56742295    -0.27800
C3454       C  0.91507231  0.78296969  0.57126973     0.18200
C3455       C  0.88278078  0.80325030  0.01232415     0.12200
C3456       C  0.93040909  0.84463228  0.50596416    -0.12200
H3457       H  0.96238078  0.83801107  0.54420678     0.12500
C3458       C  0.90901161  0.76149200  0.59434136    -0.23000
H3459       H  0.89452651  0.76842089  0.00425662     0.08100
C3460       C  0.89209649  0.81811930  0.98313309     0.04500
C3461       C  0.87599396  0.82104685  0.96164811    -0.20200
C3462       C  0.85050482  0.80899432  0.96792153    -0.12500
C3463       C  0.84122568  0.79440875  0.99782718     0.13200
C3464       C  0.86913786  0.81530167  0.51929193    -0.23000
C3465       C  0.91906001  0.83053410  0.97419455    -0.06000
H3466       H  0.88348965  0.83247261  0.93920376     0.14700
C3467       C  0.84154058  0.83271599  0.50604505    -0.16200
H3468       H  0.87384316  0.82522655  0.54320180     0.09000
H3469       H  0.88889191  0.74865832  0.59580247     0.06900
H3470       H  0.91569283  0.76816855  0.62050018     0.08100
H3471       H  0.91764537  0.75098582  0.58466925     0.07100
H3472       H  0.91996542  0.85369124  0.51428029     0.02000
H3473       H  0.92520834  0.83806258  0.47937545     0.02500
H3474       H  0.95027669  0.85854385  0.50622213     0.06000
H3475       H  0.92324260  0.84149863  0.95038578     0.05000
H3476       H  0.92473203  0.81656035  0.97037827    -0.00800
H3477       H  0.93012603  0.84304616  0.99506730     0.00700
H3478       H  0.84786751  0.84135462  0.53144578     0.04300
H3479       H  0.80369850  0.76786590  0.98581781     0.06300
H3480       H  0.84685556  0.84752041  0.48684083     0.07100
C3481       C  0.08915267  0.87330552  0.52264341    -0.22500
C3482       C  0.08249747  0.87660844  0.48988411     0.09500
C3483       C  0.05781463  0.86232074  0.47923628     0.09900
C3484       C  0.03989697  0.84644238  0.50271879    -0.17400
C3485       C  0.04627556  0.84478872  0.53655392    -0.27800
C3486       C  0.07140854  0.85755436  0.54608337     0.18200
C3487       C  0.10165093  0.89689399  0.96707769     0.12200
C3488       C  0.05044936  0.86421978  0.44332794    -0.12200
H3489       H  0.02079010  0.83617802  0.49509612     0.12500
C3490       C  0.07974113  0.85458183  0.58091232    -0.23000
H3491       H  0.10821811  0.88400523  0.53040020     0.08100
C3492       C  0.10315735  0.92062224  0.47114203     0.04500
C3493       C  0.12192835  0.93966292  0.95014062    -0.20200
C3494       C  0.13904550  0.93677358  0.93051798    -0.12500
C3495       C  0.13707602  0.91333953  0.92863400     0.13200
C3496       C  0.11827457  0.89361637  0.94695127    -0.23000
C3497       C  0.08596565  0.92492111  0.49318197    -0.06000
H3498       H  0.12343709  0.95755447  0.95188561     0.14700
C3499       C  0.15430506  0.90885960  0.90699407    -0.16200
H3500       H  0.11673589  0.87568335  0.94603503     0.09000
H3501       H  0.07305628  0.86243936  0.60067561     0.06900
H3502       H  0.10010172  0.86416965  0.58282395     0.08100
H3503       H  0.07264891  0.83483724  0.58627157     0.07100
H3504       H  0.06309080  0.85725103  0.92354414     0.02000
H3505       H  0.05459327  0.88322348  0.43791139     0.02500
H3506       H  0.03050785  0.85171864  0.43903592     0.06000
H3507       H  0.09026879  0.94430811  0.49214624     0.05000
H3508       H  0.08754459  0.92041417  0.52011411    -0.00800
H3509       H  0.06672643  0.91321728  0.48454520     0.00700
H3510       H  0.17334071  0.91951910  0.91690960     0.04300
H3511       H  0.15373271  0.91432551  0.88021950     0.06300
H3512       H  0.14918314  0.88922151  0.90709148     0.07100
C3513       C  0.11004291  0.88462853  0.70435313    -0.22500
C3514       C  0.10545212  0.90147267  0.72166576     0.09500
C3515       C  0.08132822  0.89772457  0.72235907     0.09900
C3516       C  0.06264463  0.87795222  0.70452464    -0.17400
C3517       C  0.06703166  0.86100802  0.68697131    -0.27800
C3518       C  0.09102718  0.86408901  0.68767484     0.18200
C3519       C  0.12546529  0.92178471  0.74143743     0.12200
C3520       C  0.07504172  0.91409148  0.74292783    -0.12200
H3521       H  0.04423270  0.87540945  0.70500055     0.12500
C3522       C  0.09681300  0.84592687  0.67124323    -0.23000
H3523       H  0.12849435  0.88729451  0.70460753     0.08100
C3524       C  0.13292138  0.91723744  0.77326024     0.04500
C3525       C  0.14907924  0.93705419  0.79359605    -0.20200
C3526       C  0.15788297  0.96140769  0.78321360    -0.12500
C3527       C  0.15120505  0.96606098  0.75075897     0.13200
C3528       C  0.13519969  0.94612220  0.73015411    -0.23000
C3529       C  0.12287944  0.89150653  0.78659298    -0.06000
H3530       H  0.15420305  0.93352917  0.81852512     0.14700
C3531       C  0.15931099  0.99156439  0.73792035    -0.16200
H3532       H  0.12934820  0.94959592  0.70574186     0.09000
H3533       H  0.08611791  0.82779008  0.68383883     0.06900
H3534       H  0.11660390  0.85164148  0.67352989     0.08100
H3535       H  0.09217756  0.84415122  0.64380787     0.07100
H3536       H  0.08538999  0.93315851  0.73316498     0.02000
H3537       H  0.07985147  0.91375381  0.77009890     0.02500
H3538       H  0.05513120  0.90805799  0.74161730     0.06000
H3539       H  0.13009702  0.89129271  0.81237801     0.05000
H3540       H  0.12818179  0.88097991  0.76928692    -0.00800
H3541       H  0.10252718  0.88228440  0.78827041     0.00700
H3542       H  0.16966943  0.99474534  0.71372913     0.04300
H3543       H  0.17120929  0.00605278  0.75615228     0.06300
H3544       H  0.14290738  0.99349247  0.73300151     0.07100
C3545       C  0.07375975  0.72740805  0.49204804    -0.22500
C3546       C  0.08822887  0.74474776  0.51676069     0.09500
C3547       C  0.11320133  0.75142496  0.52002271     0.09900
C3548       C  0.12274554  0.73954825  0.50001845    -0.17400
C3549       C  0.11125747  0.72111622  0.98121475    -0.27800
C3550       C  0.08665326  0.71584471  0.97728671     0.18200
C3551       C  0.07642535  0.75441130  0.54038899     0.12200
C3552       C  0.12947763  0.77030740  0.54569388    -0.12200
H3553       H  0.14143510  0.74345327  0.50425787     0.12500
C3554       C  0.06877229  0.69613039  0.95370144    -0.23000
H3555       H  0.05461941  0.72239327  0.48937485     0.08100
C3556       C  0.07387380  0.77476774  0.53168103     0.04500
C3557       C  0.06114833  0.78213599  0.55379719    -0.20200
C3558       C  0.05041373  0.76946824  0.58438980    -0.12500
C3559       C  0.05359622  0.74941325  0.59357106     0.13200
C3560       C  0.06676375  0.74233658  0.57156430    -0.23000
C3561       C  0.08396325  0.78828836  0.49858203    -0.06000
H3562       H  0.05853728  0.79729851  0.54633424     0.14700
C3563       C  0.04229071  0.73412317  0.62504761    -0.16200
H3564       H  0.06875867  0.72667015  0.57820793     0.09000
H3565       H  0.06132401  0.70420515  0.93527873     0.06900
H3566       H  0.05041218  0.68080504  0.46325372     0.08100
H3567       H  0.07721549  0.68723617  0.93894135     0.07100
H3568       H  0.12199027  0.76417238  0.57174429     0.02000
H3569       H  0.13034768  0.78803875  0.54013510     0.02500
H3570       H  0.14849980  0.77332759  0.54511622     0.06000
H3571       H  0.09287560  0.80888225  0.00659842     0.05000
H3572       H  0.08644289  0.78105061  0.98524235    -0.00800
H3573       H  0.11442631  0.79800199  0.00952134     0.00700
H3574       H  0.02959145  0.71483306  0.61756169     0.04300
H3575       H  0.03169799  0.74035077  0.64049240     0.06300
H3576       H  0.05702972  0.73468337  0.64137663     0.07100
C3577       C  0.21751326  0.73043998  0.58426519    -0.22500
C3578       C  0.20919620  0.74520933  0.59915556     0.09500
C3579       C  0.18497068  0.74024101  0.59258610     0.09900
C3580       C  0.17005770  0.72130125  0.56984929    -0.17400
C3581       C  0.17894117  0.70735718  0.55364369    -0.27800
C3582       C  0.20266971  0.71141001  0.56201285     0.18200
C3583       C  0.22695433  0.76631358  0.62009908     0.12200
C3584       C  0.17492996  0.75490820  0.60944331    -0.12200
H3585       H  0.15186135  0.71813283  0.56351457     0.12500
C3586       C  0.21247526  0.69561471  0.54788890    -0.23000
H3587       H  0.23607344  0.73424102  0.58952798     0.08100
C3588       C  0.23635682  0.76271368  0.65092191     0.04500
C3589       C  0.25648789  0.78268661  0.66645571    -0.20200
C3590       C  0.26697170  0.80643293  0.65271950    -0.12500
C3591       C  0.25669233  0.81026204  0.62275968     0.13200
C3592       C  0.23697455  0.79008841  0.60665336    -0.23000
C3593       C  0.22517377  0.73778821  0.66746850    -0.06000
H3594       H  0.26440331  0.77961341  0.68911010     0.14700
C3595       C  0.26729605  0.83522288  0.60648509    -0.16200
H3596       H  0.22995052  0.79270436  0.58271199     0.09000
H3597       H  0.23018474  0.69986105  0.55995866     0.06900
H3598       H  0.21591118  0.69871762  0.52011979     0.08100
H3599       H  0.19911268  0.67599028  0.55283570     0.07100
H3600       H  0.18585039  0.77443839  0.60177436     0.02000
H3601       H  0.17578686  0.75344063  0.63756419     0.02500
H3602       H  0.15548574  0.74820956  0.60220062     0.06000
H3603       H  0.23406527  0.73846398  0.69223850     0.05000
H3604       H  0.22728652  0.72474921  0.65078768    -0.00800
H3605       H  0.20532611  0.73080320  0.67227017     0.00700
H3606       H  0.25768726  0.83461695  0.58240912     0.04300
H3607       H  0.28702166  0.84244494  0.60045377     0.06300
H3608       H  0.26537594  0.84797071  0.62406364     0.07100
C3609       C  0.25053486  0.75526670  0.88419899    -0.22500
C3610       C  0.24888841  0.77655236  0.88084518     0.09500
C3611       C  0.22877879  0.77751503  0.89503213     0.09900
C3612       C  0.20988229  0.75650545  0.91062010    -0.17400
C3613       C  0.21046263  0.73441876  0.91173465    -0.27800
C3614       C  0.23153308  0.73405726  0.89924191     0.18200
C3615       C  0.26507019  0.79483810  0.85558154     0.12200
C3616       C  0.22692994  0.80045848  0.89258199    -0.12200
H3617       H  0.19411272  0.75709467  0.92076182     0.12500
C3618       C  0.23365019  0.71118551  0.89941161    -0.23000
H3619       H  0.26599340  0.75474873  0.87269770     0.08100
C3620       C  0.28979782  0.81219899  0.86230749     0.04500
C3621       C  0.30488092  0.82654579  0.83533580    -0.20200
C3622       C  0.29587051  0.82301635  0.80177746    -0.12500
C3623       C  0.27081014  0.80581371  0.79547907     0.13200
C3624       C  0.25572769  0.79233211  0.82261161    -0.23000
C3625       C  0.30020697  0.81520920  0.89766432    -0.06000
H3626       H  0.32400785  0.83976908  0.84021251     0.14700
C3627       C  0.25978072  0.80076192  0.76023929    -0.16200
H3628       H  0.23671470  0.77868018  0.81782793     0.09000
H3629       H  0.23355826  0.70513246  0.92603568     0.06900
H3630       H  0.25100606  0.71429860  0.88736611     0.08100
H3631       H  0.21816656  0.69642412  0.88491882     0.07100
H3632       H  0.22627386  0.80514935  0.86545288     0.02000
H3633       H  0.24318177  0.81586228  0.90494808     0.02500
H3634       H  0.21013792  0.79822148  0.90539101     0.06000
H3635       H  0.31984890  0.82973113  0.89858236     0.05000
H3636       H  0.29884375  0.79775061  0.90630516    -0.00800
H3637       H  0.28973241  0.82029924  0.91547527     0.00700
H3638       H  0.26753249  0.79134935  0.74516040     0.04300
H3639       H  0.26380629  0.81804745  0.74734260     0.06300
H3640       H  0.23950908  0.78862508  0.76079394     0.07100
C3641       C  0.91910236  0.69369805  0.69183564    -0.22500
C3642       C  0.92664840  0.67610424  0.69181776     0.09500
C3643       C  0.94635374  0.67964753  0.67052305     0.09900
C3644       C  0.95909662  0.70142325  0.65152813    -0.17400
C3645       C  0.95254935  0.71970260  0.65317468    -0.27800
C3646       C  0.93188673  0.71552867  0.67285845     0.18200
C3647       C  0.91449873  0.65449544  0.71504056     0.12200
C3648       C  0.95434060  0.66070123  0.66854838    -0.12200
H3649       H  0.97512206  0.70479680  0.63675669     0.12500
C3650       C  0.92330769  0.73401692  0.67500519    -0.23000
H3651       H  0.90369897  0.69078892  0.70769986     0.08100
C3652       C  0.92476796  0.65422743  0.74703820     0.04500
C3653       C  0.91510895  0.63216277  0.76569014    -0.20200
C3654       C  0.89534188  0.61041716  0.75306101    -0.12500
C3655       C  0.88364176  0.61135436  0.72259016     0.13200
C3656       C  0.89344710  0.63334646  0.70388117    -0.23000
C3657       C  0.94630085  0.67712771  0.76101989    -0.06000
H3658       H  0.92392235  0.63158522  0.78917585     0.14700
C3659       C  0.86082499  0.58915837  0.70965106    -0.16200
H3660       H  0.88523416  0.63381095  0.67977201     0.09000
H3661       H  0.92385228  0.73965797  0.70190909     0.06900
H3662       H  0.90409305  0.72561346  0.66562994     0.08100
H3663       H  0.93473891  0.75067543  0.65955441     0.07100
H3664       H  0.93880728  0.64306618  0.65951051     0.02000
H3665       H  0.96022377  0.65791270  0.69404860     0.02500
H3666       H  0.96997726  0.66631148  0.65064612     0.06000
H3667       H  0.95203949  0.67385318  0.78636931     0.05000
H3668       H  0.94118909  0.69159466  0.76386261    -0.00800
H3669       H  0.96223716  0.68379501  0.74346441     0.00700
H3670       H  0.84644300  0.58207119  0.72976365     0.04300
H3671       H  0.86509717  0.57469810  0.70244549     0.06300
H3672       H  0.85322313  0.59346914  0.68675932     0.07100
C3673       C  0.81407134  0.53235367  0.64510520    -0.22500
C3674       C  0.79204610  0.53073438  0.65625992     0.09500
C3675       C  0.78498942  0.52508623  0.69064321     0.09900
C3676       C  0.80044170  0.52201649  0.71336707    -0.17400
C3677       C  0.82276544  0.52381596  0.70278100    -0.27800
C3678       C  0.82957017  0.52892946  0.66787649     0.18200
C3679       C  0.77535805  0.53310657  0.63161845     0.12200
C3680       C  0.76074028  0.52164681  0.70332991    -0.12200
H3681       H  0.79485861  0.51819012  0.73983048     0.12500
C3682       C  0.85268434  0.53034969  0.65411165    -0.23000
H3683       H  0.81903509  0.53615677  0.61842378     0.08100
C3684       C  0.77340259  0.55447334  0.62975637     0.04500
C3685       C  0.75344373  0.55379225  0.61230257    -0.20200
C3686       C  0.73545551  0.53222285  0.59635782    -0.12500
C3687       C  0.73896964  0.51150336  0.59569841     0.13200
C3688       C  0.75878066  0.51227887  0.61350415    -0.23000
C3689       C  0.79224756  0.57785130  0.64658186    -0.06000
H3690       H  0.75149655  0.56994920  0.61216304     0.14700
C3691       C  0.72202850  0.48826798  0.57674678    -0.16200
H3692       H  0.76069768  0.49610447  0.61472984     0.09000
H3693       H  0.86911758  0.54586732  0.66589698     0.06900
H3694       H  0.85432689  0.53333162  0.62609617     0.08100
H3695       H  0.85254492  0.51293565  0.65947069     0.07100
H3696       H  0.74542417  0.50657005  0.68904105     0.02000
H3697       H  0.75993314  0.53872406  0.69972288     0.02500
H3698       H  0.75791360  0.51687730  0.73085931     0.06000
H3699       H  0.78816153  0.59294537  0.64252157     0.05000
H3700       H  0.81068334  0.58360033  0.63569587    -0.00800
H3701       H  0.79275456  0.57507444  0.67443484     0.00700
H3702       H  0.72060925  0.49259188  0.54965999     0.04300
H3703       H  0.70357941  0.47897567  0.58882894     0.06300
H3704       H  0.72887906  0.47502619  0.57706376     0.07100
C3705       C  0.72081667  0.52469549  0.89441771    -0.22500
C3706       C  0.74430358  0.53097716  0.90644245     0.09500
C3707       C  0.74949607  0.53516950  0.94150029     0.09900
C3708       C  0.73102247  0.53265442  0.96382089    -0.17400
C3709       C  0.70716975  0.52554866  0.95229567    -0.27800
C3710       C  0.70197065  0.52156148  0.91693118     0.18200
C3711       C  0.76279282  0.53103942  0.88284769     0.12200
C3712       C  0.77434175  0.54152900  0.95560894    -0.12200
H3713       H  0.73521840  0.53600297  0.99076176     0.12500
C3714       C  0.67679914  0.51268312  0.90193997    -0.23000
H3715       H  0.71689819  0.52122283  0.86745227     0.08100
C3716       C  0.76223953  0.50904730  0.87420996     0.04500
C3717       C  0.78212231  0.50998833  0.85651426    -0.20200
C3718       C  0.80298178  0.53246430  0.84777532    -0.12500
C3719       C  0.80296398  0.55458359  0.85540737     0.13200
C3720       C  0.78275640  0.55346675  0.87263367    -0.23000
C3721       C  0.74111840  0.48458105  0.88501705    -0.06000
H3722       H  0.78166813  0.49295107  0.85068664     0.14700
C3723       C  0.82413170  0.57951876  0.84635172    -0.16200
H3724       H  0.78295685  0.57023354  0.87956462     0.09000
H3725       H  0.67112208  0.49551598  0.88751433     0.06900
H3726       H  0.67743696  0.52675131  0.88416076     0.08100
H3727       H  0.66233440  0.50847658  0.92109739     0.07100
H3728       H  0.78870730  0.55907880  0.94443293     0.02000
H3729       H  0.77853197  0.52677871  0.94935506     0.02500
H3730       H  0.77506271  0.54362474  0.98376073     0.06000
H3731       H  0.74373341  0.46916627  0.87668026     0.05000
H3732       H  0.72376682  0.48195190  0.87362445    -0.00800
H3733       H  0.73942609  0.48380818  0.91322847     0.00700
H3734       H  0.82034923  0.59443744  0.85333136     0.04300
H3735       H  0.82753084  0.58072398  0.81845341     0.06300
H3736       H  0.84089818  0.58287459  0.86038049     0.07100
C3737       C  0.03726515  0.62331268  0.86455089    -0.22500
C3738       C  0.01837492  0.60230617  0.87968649     0.09500
C3739       C  0.02212480  0.59477586  0.91202395     0.09900
C3740       C  0.04497303  0.60863341  0.92856370    -0.17400
C3741       C  0.06403770  0.62986974  0.91337066    -0.27800
C3742       C  0.05987140  0.63734328  0.88084898     0.18200
C3743       C  0.99398333  0.59092308  0.86287374     0.12200
C3744       C  0.00190789  0.57231297  0.92904481    -0.12200
H3745       H  0.04798398  0.60281819  0.95325759     0.12500
C3746       C  0.07857930  0.66066549  0.86330395    -0.23000
H3747       H  0.03391179  0.62920758  0.84011367     0.08100
C3748       C  0.97830338  0.60061866  0.86847373     0.04500
C3749       C  0.95616271  0.59098375  0.85061448    -0.20200
C3750       C  0.94918772  0.57198879  0.82681117    -0.12500
C3751       C  0.96516154  0.56264351  0.82038665     0.13200
C3752       C  0.98748679  0.57226445  0.83860467    -0.23000
C3753       C  0.98502050  0.62133027  0.89320607    -0.06000
H3754       H  0.94405388  0.59835522  0.85539852     0.14700
C3755       C  0.95847444  0.54228300  0.79518964    -0.16200
H3756       H  0.99996371  0.56533950  0.83383874     0.09000
H3757       H  0.07096172  0.66461855  0.84012092     0.06900
H3758       H  0.09462163  0.65906880  0.85493143     0.08100
H3759       H  0.08458091  0.67649136  0.88075369     0.07100
H3760       H  0.99653033  0.55606463  0.91263757     0.02000
H3761       H  0.98566948  0.57464355  0.93313197     0.02500
H3762       H  0.00778334  0.56884749  0.95417044     0.06000
H3763       H  0.97053243  0.62655740  0.89473607     0.05000
H3764       H  0.00233539  0.63773898  0.88498347    -0.00800
H3765       H  0.98756606  0.61577429  0.91907759     0.00700
H3766       H  0.95658401  0.54840404  0.76936607     0.04300
H3767       H  0.94082545  0.52600169  0.80267612     0.06300
H3768       H  0.97274649  0.53675032  0.79395690     0.07100
C3769       C  0.77121663  0.26365083  0.93404526    -0.22500
C3770       C  0.78209776  0.25570028  0.90983506     0.09500
C3771       C  0.80789631  0.26782489  0.90693332     0.09900
C3772       C  0.82232504  0.28685857  0.92967832    -0.17400
C3773       C  0.81154358  0.29382723  0.95560192    -0.27800
C3774       C  0.78551552  0.28256109  0.95696160     0.18200
C3775       C  0.76578979  0.23426934  0.88846045     0.12200
C3776       C  0.82014217  0.26030387  0.88034690    -0.12200
H3777       H  0.84217237  0.29560566  0.92807502     0.12500
C3778       C  0.78166594  0.26044889  0.50622846    -0.23000
H3779       H  0.75133568  0.25456322  0.93546474     0.08100
C3780       C  0.75645450  0.21009301  0.90059800     0.04500
C3781       C  0.73828142  0.19043103  0.88176676    -0.20200
C3782       C  0.72896014  0.19447913  0.85136945    -0.12500
C3783       C  0.73952419  0.21864450  0.83821446     0.13200
C3784       C  0.75781611  0.23823701  0.85698762    -0.23000
C3785       C  0.76525348  0.20517191  0.93386188    -0.06000
H3786       H  0.73045828  0.17194481  0.89169447     0.14700
C3787       C  0.73186930  0.22392593  0.80426414    -0.16200
H3788       H  0.76538135  0.25684522  0.84765214     0.09000
H3789       H  0.76547617  0.24189652  0.50990843     0.06900
H3790       H  0.77639959  0.27380461  0.51574987     0.08100
H3791       H  0.79687814  0.26132097  0.52178577     0.07100
H3792       H  0.81420532  0.26254405  0.85456896     0.02000
H3793       H  0.81496468  0.24082957  0.88420772     0.02500
H3794       H  0.84049200  0.27159123  0.88162145     0.06000
H3795       H  0.75620602  0.18525328  0.93958675     0.05000
H3796       H  0.76111430  0.21423740  0.95503944    -0.00800
H3797       H  0.78540612  0.21245420  0.93268116     0.00700
H3798       H  0.71243974  0.21956966  0.80514121     0.04300
H3799       H  0.73416902  0.21285103  0.78419837     0.06300
H3800       H  0.74321023  0.24353245  0.79701009     0.07100
C3801       C  0.71668602  0.19285951  0.64804870    -0.22500
C3802       C  0.74086003  0.20775414  0.65971678     0.09500
C3803       C  0.74680878  0.20523212  0.69357318     0.09900
C3804       C  0.72852277  0.18799407  0.71501180    -0.17400
C3805       C  0.70404941  0.17388521  0.70415900    -0.27800
C3806       C  0.69803705  0.17607764  0.66997701     0.18200
C3807       C  0.75925702  0.22775752  0.63777518     0.12200
C3808       C  0.77224283  0.22151556  0.70761202    -0.12200
H3809       H  0.73320802  0.18605418  0.74099033     0.12500
C3810       C  0.67220082  0.16230275  0.65621233    -0.23000
H3811       H  0.71211921  0.19512209  0.62213385     0.08100
C3812       C  0.77680181  0.22512120  0.61854314     0.04500
C3813       C  0.79595389  0.24576249  0.60219316    -0.20200
C3814       C  0.79790453  0.26900869  0.60453319    -0.12500
C3815       C  0.77984408  0.27136287  0.62344180     0.13200
C3816       C  0.76079465  0.25069073  0.63960695    -0.23000
C3817       C  0.77534350  0.20056115  0.61557467    -0.06000
H3818       H  0.80949634  0.24373199  0.58756607     0.14700
C3819       C  0.78098010  0.29571082  0.62828415    -0.16200
H3820       H  0.74739127  0.25254991  0.65485152     0.09000
H3821       H  0.67147993  0.15052119  0.63470720     0.06900
H3822       H  0.66674730  0.17556608  0.64672382     0.08100
H3823       H  0.65839248  0.15056875  0.67539139     0.07100
H3824       H  0.77686871  0.24098255  0.70607101     0.02000
H3825       H  0.78592703  0.21909053  0.69275735     0.02500
H3826       H  0.77366470  0.21725675  0.73472902     0.06000
H3827       H  0.79041867  0.20158815  0.59952907     0.05000
H3828       H  0.75755354  0.18721106  0.60380941    -0.00800
H3829       H  0.77666271  0.19376920  0.64118224     0.00700
H3830       H  0.77828697  0.30260092  0.60351634     0.04300
H3831       H  0.79899957  0.30917443  0.63939827     0.06300
H3832       H  0.76639115  0.29424122  0.64580392     0.07100
C3833       C  0.86064933  0.42606695  0.73486291    -0.22500
C3834       C  0.87431721  0.43082429  0.70478843     0.09500
C3835       C  0.88994312  0.45531193  0.69446455     0.09900
C3836       C  0.89058815  0.47449097  0.71360087    -0.17400
C3837       C  0.87549503  0.46970616  0.74236241    -0.27800
C3838       C  0.86124919  0.44517085  0.75406923     0.18200
C3839       C  0.86888708  0.41010683  0.68168206     0.12200
C3840       C  0.90480770  0.46112500  0.66212845    -0.12200
H3841       H  0.90162265  0.49318599  0.70464836     0.12500
C3842       C  0.84645180  0.43829651  0.78656601    -0.23000
H3843       H  0.84879135  0.40724401  0.74280372     0.08100
C3844       C  0.88294180  0.39823278  0.68110460     0.04500
C3845       C  0.87759928  0.37988083  0.65669626    -0.20200
C3846       C  0.85867294  0.37332823  0.63267337    -0.12500
C3847       C  0.84390179  0.38462077  0.63452888     0.13200
C3848       C  0.84923773  0.40275421  0.65905411    -0.23000
C3849       C  0.90352579  0.40495728  0.70610332    -0.06000
H3850       H  0.88871531  0.37110471  0.65578694     0.14700
C3851       C  0.82225058  0.37764848  0.61124687    -0.16200
H3852       H  0.83831787  0.41175959  0.66015349     0.09000
H3853       H  0.85160392  0.42704295  0.80275041     0.06900
H3854       H  0.82656103  0.42740719  0.78049582     0.08100
H3855       H  0.84978510  0.45432326  0.80200769     0.07100
H3856       H  0.89238258  0.45266932  0.64001341     0.02000
H3857       H  0.91767095  0.45385131  0.66374039     0.02500
H3858       H  0.91580522  0.48117925  0.65751043     0.06000
H3859       H  0.91262251  0.39383937  0.70221851     0.05000
H3860       H  0.89615427  0.40176005  0.73248456    -0.00800
H3861       H  0.91762275  0.42455222  0.70314488     0.00700
H3862       H  0.81171798  0.38684712  0.61859183     0.04300
H3863       H  0.80949907  0.35755935  0.61249522     0.06300
H3864       H  0.82862955  0.38328879  0.58466582     0.07100
C3865       C  0.88763936  0.44298367  0.97807176    -0.22500
C3866       C  0.86936153  0.43965802  0.95448175     0.09500
C3867       C  0.84991332  0.41573896  0.94803891     0.09900
C3868       C  0.84918679  0.39575256  0.96508887    -0.17400
C3869       C  0.86765892  0.39880766  0.98812139    -0.27800
C3870       C  0.88694957  0.42287305  0.99524792     0.18200
C3871       C  0.87177002  0.46071810  0.93392248     0.12200
C3872       C  0.83022431  0.41119732  0.92231376    -0.12200
H3873       H  0.83432855  0.37740943  0.95966645     0.12500
C3874       C  0.89917157  0.42584312  0.52184391    -0.23000
H3875       H  0.90260705  0.46136524  0.98297363     0.08100
C3876       C  0.85894050  0.47324990  0.94208150     0.04500
C3877       C  0.85770723  0.48928790  0.91791979    -0.20200
C3878       C  0.86899934  0.49294010  0.88586764    -0.12500
C3879       C  0.88352771  0.48191302  0.87902855     0.13200
C3880       C  0.88456525  0.46587914  0.90301572    -0.23000
C3881       C  0.84606419  0.46916222  0.97584375    -0.06000
H3882       H  0.84683943  0.49794482  0.92335071     0.14700
C3883       C  0.89816535  0.48655068  0.84661038    -0.16200
H3884       H  0.89468083  0.45652374  0.89693988     0.09000
H3885       H  0.89588342  0.43690083  0.54094263     0.06900
H3886       H  0.91841987  0.43659218  0.51259710     0.08100
H3887       H  0.89696230  0.40927516  0.53503837     0.07100
H3888       H  0.83865166  0.41782479  0.89681774     0.02000
H3889       H  0.82038783  0.42101476  0.92994807     0.02500
H3890       H  0.81647477  0.39140588  0.92013738     0.06000
H3891       H  0.83690410  0.48034070  0.97820617     0.05000
H3892       H  0.85965136  0.47435844  0.99679994    -0.00800
H3893       H  0.83187593  0.44958717  0.97877593     0.00700
H3894       H  0.91778151  0.49356573  0.85309219     0.04300
H3895       H  0.89745628  0.50034188  0.82975312     0.06300
H3896       H  0.89127252  0.46916741  0.83225691     0.07100
C3897       C  0.93627772  0.25974413  0.92245299    -0.22500
C3898       C  0.91886077  0.24395043  0.94624242     0.09500
C3899       C  0.91355990  0.21936521  0.94834599     0.09900
C3900       C  0.92702227  0.21162877  0.92818784    -0.17400
C3901       C  0.94554715  0.22793847  0.90598765    -0.27800
C3902       C  0.94980192  0.25212414  0.90249686     0.18200
C3903       C  0.90762438  0.25422079  0.96973613     0.12200
C3904       C  0.89460240  0.20169050  0.97299314    -0.12200
H3905       H  0.92415147  0.19326428  0.93130801     0.12500
C3906       C  0.96912748  0.27063303  0.87889198    -0.23000
H3907       H  0.94006661  0.27850079  0.92045266     0.08100
C3908       C  0.92135712  0.27022593  0.99651684     0.04500
C3909       C  0.90976585  0.28066306  0.51773974    -0.20200
C3910       C  0.88689319  0.27816859  0.50931494    -0.12500
C3911       C  0.87351000  0.26133959  0.98242475     0.13200
C3912       C  0.88358134  0.24937886  0.96374417    -0.23000
C3913       C  0.94690757  0.27519767  0.00475315    -0.06000
H3914       H  0.92044583  0.29298810  0.53811325     0.14700
C3915       C  0.84754053  0.25718171  0.47343317    -0.16200
H3916       H  0.87289928  0.23682958  0.94357898     0.09000
H3917       H  0.98312765  0.28631503  0.89391306     0.06900
H3918       H  0.96040215  0.27751260  0.86064512     0.08100
H3919       H  0.97859343  0.26290135  0.86381725     0.07100
H3920       H  0.87510344  0.20091383  0.46328333     0.02000
H3921       H  0.89822850  0.20849097  0.49586359     0.02500
H3922       H  0.89114458  0.18394021  0.46649499     0.06000
H3923       H  0.95484996  0.28774066  0.02684221     0.05000
H3924       H  0.95925957  0.28386104  0.98259267    -0.00800
H3925       H  0.94636490  0.25771784  0.01109477     0.00700
H3926       H  0.84639412  0.25962344  0.94741450     0.04300
H3927       H  0.84034785  0.26552983  0.49169832     0.06300
H3928       H  0.83467708  0.23709971  0.47382830     0.07100
C3929       C  0.12412980  0.22463007  0.73313803    -0.22500
C3930       C  0.09996288  0.20870992  0.72248452     0.09500
C3931       C  0.09586503  0.19427414  0.69314864     0.09900
C3932       C  0.11599109  0.19516986  0.67607184    -0.17400
C3933       C  0.14021132  0.21023577  0.68755198    -0.27800
C3934       C  0.14434377  0.22557991  0.71610768     0.18200
C3935       C  0.07924872  0.20523981  0.74467977     0.12200
C3936       C  0.07017971  0.17732290  0.68059408    -0.12200
H3937       H  0.11275006  0.18355888  0.65405344     0.12500
C3938       C  0.16978267  0.24185666  0.73006344    -0.23000
H3939       H  0.12708557  0.23556985  0.75582532     0.08100
C3940       C  0.07207576  0.18917105  0.77282004     0.04500
C3941       C  0.05240039  0.18605745  0.79329438    -0.20200
C3942       C  0.03974629  0.19893943  0.78691352    -0.12500
C3943       C  0.04693303  0.21499992  0.75835300     0.13200
C3944       C  0.06651455  0.21779988  0.73752742    -0.23000
C3945       C  0.08532082  0.17534801  0.78137902    -0.06000
H3946       H  0.04731634  0.17383843  0.81501690     0.14700
C3947       C  0.03403650  0.22903320  0.74921586    -0.16200
H3948       H  0.07207825  0.22998002  0.71569413     0.09000
H3949       H  0.17838558  0.23066129  0.73682731     0.06900
H3950       H  0.16943078  0.25168390  0.75335693     0.08100
H3951       H  0.18124965  0.25585114  0.71078746     0.07100
H3952       H  0.06104581  0.18808080  0.67420466     0.02000
H3953       H  0.05941303  0.16370090  0.70068020     0.02500
H3954       H  0.07016989  0.16721140  0.65741636     0.06000
H3955       H  0.07725485  0.16336029  0.80405607     0.05000
H3956       H  0.10492839  0.18847040  0.78696377    -0.00800
H3957       H  0.08418239  0.16364056  0.75953511     0.00700
H3958       H  0.03688864  0.24237627  0.76955760     0.04300
H3959       H  0.01407822  0.21615194  0.74579917     0.06300
H3960       H  0.04123706  0.23955014  0.72514798     0.07100
C3961       C  0.09071040  0.18487949  0.94476827    -0.22500
C3962       C  0.10394957  0.20369061  0.96803185     0.09500
C3963       C  0.09900427  0.22313453  0.97103530     0.09900
C3964       C  0.07957066  0.22241233  0.95230843    -0.17400
C3965       C  0.06500839  0.20270202  0.93046796    -0.27800
C3966       C  0.07134504  0.18406061  0.92579564     0.18200
C3967       C  0.11869720  0.20232092  0.49507363     0.12200
C3968       C  0.11389484  0.24428653  0.99465150    -0.12200
H3969       H  0.07530270  0.23700467  0.95556359     0.12500
C3970       C  0.05734139  0.16255977  0.90227434    -0.23000
H3971       H  0.09327049  0.17187305  0.44532233     0.08100
C3972       C  0.10993817  0.18925892  0.52583559     0.04500
C3973       C  0.12631668  0.18691095  0.54757523    -0.20200
C3974       C  0.15141500  0.19701139  0.53937042    -0.12500
C3975       C  0.15998133  0.20940767  0.50768179     0.13200
C3976       C  0.14493826  0.20901731  0.98327840    -0.23000
C3977       C  0.08319962  0.17768850  0.53572473    -0.06000
H3978       H  0.11926191  0.17703856  0.57134352     0.14700
C3979       C  0.18623916  0.21980182  0.49611344    -0.16200
H3980       H  0.15155296  0.21770547  0.95867390     0.09000
H3981       H  0.06356546  0.15168277  0.40484570     0.06900
H3982       H  0.05860149  0.16916049  0.87569416     0.08100
H3983       H  0.03781812  0.15187389  0.91037623     0.07100
H3984       H  0.13355184  0.25347279  0.98704979     0.02000
H3985       H  0.11211528  0.23761922  0.02128527     0.02500
H3986       H  0.10775655  0.25808090  0.99385432     0.06000
H3987       H  0.07942575  0.16810264  0.56069155     0.05000
H3988       H  0.07162707  0.16405359  0.51620828    -0.00800
H3989       H  0.07777865  0.19196619  0.53766336     0.00700
H3990       H  0.18951286  0.22903970  0.47093623     0.04300
H3991       H  0.19061191  0.20480636  0.49358535     0.06300
H3992       H  0.20006493  0.22956564  0.01213842     0.07100
C3993       C  0.93035084  0.14936893  0.51902261    -0.22500
C3994       C  0.92552002  0.12040664  0.01638084     0.09500
C3995       C  0.93517291  0.11216929  0.99047460     0.09900
C3996       C  0.95331786  0.12933300  0.96876887    -0.17400
C3997       C  0.96169951  0.15461380  0.97167781    -0.27800
C3998       C  0.95224570  0.16278543  0.99849660     0.18200
C3999       C  0.90307408  0.10679056  0.53955068     0.12200
C4000       C  0.92564777  0.08520128  0.98485898    -0.12200
H4001       H  0.96027401  0.12272504  0.94856438     0.12500
C4002       C  0.95386287  0.19275522  0.49868663    -0.23000
H4003       H  0.92088028  0.15514666  0.53664636     0.08100
C4004       C  0.90680624  0.09624386  0.56906136     0.04500
C4005       C  0.88660397  0.07609788  0.58435089    -0.20200
C4006       C  0.86262051  0.06711238  0.57182315    -0.12500
C4007       C  0.85873572  0.07949461  0.54433420     0.13200
C4008       C  0.87911705  0.09894412  0.52822605    -0.23000
C4009       C  0.93197801  0.10653993  0.58469122    -0.06000
H4010       H  0.88954856  0.06728192  0.60619415     0.14700
C4011       C  0.83341539  0.07180437  0.53080313    -0.16200
H4012       H  0.87645674  0.10762114  0.50597993     0.09000
H4013       H  0.94309194  0.19541915  0.51902602     0.06900
H4014       H  0.94912438  0.19829193  0.47427650     0.08100
H4015       H  0.98069069  0.19994225  0.00821379     0.07100
H4016       H  0.90566804  0.07584705  0.97920924     0.02000
H4017       H  0.92866914  0.07683824  0.00794720     0.02500
H4018       H  0.93502803  0.08193346  0.96316615     0.06000
H4019       H  0.93157734  0.09628913  0.60800142     0.05000
H4020       H  0.93891123  0.12595509  0.59187341    -0.00800
H4021       H  0.94573027  0.09774382  0.05995824     0.00700
H4022       H  0.83407164  0.08314971  0.50864909     0.04300
H4023       H  0.82222439  0.07401777  0.55092826     0.06300
H4024       H  0.82431866  0.05240613  0.52240776     0.07100
C4025       C  0.90192709  0.11755533  0.77690448    -0.22500
C4026       C  0.89467164  0.09391752  0.78883677     0.09500
C4027       C  0.90631849  0.09104237  0.81780416     0.09900
C4028       C  0.92536507  0.11188099  0.83371106    -0.17400
C4029       C  0.93355600  0.13574569  0.82106032    -0.27800
C4030       C  0.92120724  0.13848083  0.79233098     0.18200
C4031       C  0.87717426  0.07263169  0.76785680     0.12200
C4032       C  0.89877487  0.06592620  0.83172086    -0.12200
H4033       H  0.93436029  0.10933987  0.85567060     0.12500
C4034       C  0.92831182  0.16313084  0.77693373    -0.23000
H4035       H  0.89302079  0.11955023  0.75438768     0.08100
C4036       C  0.85171668  0.06441738  0.76665441     0.04500
C4037       C  0.83678355  0.04622912  0.74294322    -0.20200
C4038       C  0.84687313  0.03631992  0.72021647    -0.12500
C4039       C  0.87215541  0.04357186  0.72308251     0.13200
C4040       C  0.88688938  0.06164327  0.74672350    -0.23000
C4041       C  0.84044279  0.07498225  0.79019496    -0.06000
H4042       H  0.81742573  0.04055625  0.74112086     0.14700
C4043       C  0.88385552  0.03226796  0.70155819    -0.16200
H4044       H  0.90639382  0.06785439  0.74803246     0.09000
H4045       H  0.91621436  0.16157494  0.75526561     0.06900
H4046       H  0.94739469  0.17183875  0.76694564     0.08100
H4047       H  0.92672170  0.17506590  0.79637601     0.07100
H4048       H  0.90199015  0.05499448  0.81234817     0.02000
H4049       H  0.87896095  0.05640068  0.83851142     0.02500
H4050       H  0.90937470  0.06687432  0.85491099     0.06000
H4051       H  0.82023154  0.06608068  0.78667420     0.05000
H4052       H  0.84851560  0.09490084  0.78524123    -0.00800
H4053       H  0.84405345  0.07215674  0.81706504     0.00700
H4054       H  0.88470690  0.03774381  0.67448465     0.04300
H4055       H  0.87315746  0.01198785  0.70386740     0.06300
H4056       H  0.90299758  0.03835483  0.70974163     0.07100
C4057       C  0.02125550  0.38203016  0.62643579    -0.22500
C4058       C  0.01740812  0.39797930  0.60535702     0.09500
C4059       C  0.03648821  0.42254190  0.60198857     0.09900
C4060       C  0.05828081  0.43085422  0.62091125    -0.17400
C4061       C  0.06172716  0.41529281  0.64325255    -0.27800
C4062       C  0.04312920  0.39043298  0.64554766     0.18200
C4063       C  0.99256395  0.38938044  0.58983420     0.12200
C4064       C  0.03366561  0.44016770  0.57891861    -0.12200
H4065       H  0.07240382  0.45000901  0.61936703     0.12500
C4066       C  0.04570545  0.37321857  0.66971606    -0.23000
H4067       H  0.00660009  0.36320158  0.62916462     0.08100
C4068       C  0.98444780  0.37457639  0.56033747     0.04500
C4069       C  0.96040016  0.36618027  0.54794510    -0.20200
C4070       C  0.94409467  0.37208393  0.56446294    -0.12500
C4071       C  0.95276896  0.38800162  0.59298019     0.13200
C4072       C  0.97668865  0.39619780  0.60536477    -0.23000
C4073       C  0.00105105  0.36736854  0.54225151    -0.06000
H4074       H  0.95387745  0.35387535  0.52630892     0.14700
C4075       C  0.93742969  0.39696347  0.61084802    -0.16200
H4076       H  0.98298270  0.40793651  0.62760761     0.09000
H4077       H  0.02938057  0.35453084  0.66890237     0.06900
H4078       H  0.04780934  0.38016619  0.69621191     0.08100
H4079       H  0.06213123  0.37183913  0.66274770     0.07100
H4080       H  0.01803133  0.44237844  0.58756236     0.02000
H4081       H  0.03020808  0.43305376  0.55243470     0.02500
H4082       H  0.05044140  0.45856105  0.57878774     0.06000
H4083       H  0.99201210  0.35589273  0.51951361     0.05000
H4084       H  0.00613126  0.35671336  0.55975537    -0.00800
H4085       H  0.01798981  0.38407419  0.53372218     0.00700
H4086       H  0.93383660  0.39005747  0.63748901     0.04300
H4087       H  0.91963864  0.39125226  0.59804340     0.06300
H4088       H  0.94759688  0.41731139  0.61131104     0.07100
C4089       C  0.09483541  0.37436734  0.82258952    -0.22500
C4090       C  0.06959530  0.35755921  0.82214997     0.09500
C4091       C  0.05349945  0.36398230  0.80573174     0.09900
C4092       C  0.06326803  0.38612216  0.78729772    -0.17400
C4093       C  0.08874501  0.40193211  0.78516487    -0.27800
C4094       C  0.10458939  0.39662260  0.80469049     0.18200
C4095       C  0.06083422  0.33227225  0.83495881     0.12200
C4096       C  0.02610425  0.34698605  0.80658714    -0.12200
H4097       H  0.05112489  0.39018998  0.77252116     0.12500
C4098       C  0.13194285  0.41388833  0.80663767    -0.23000
H4099       H  0.10712002  0.36965108  0.83578231     0.08100
C4100       C  0.05793497  0.31360579  0.81231528     0.04500
C4101       C  0.04810906  0.28955511  0.82437812    -0.20200
C4102       C  0.04143131  0.28360920  0.85864477    -0.12500
C4103       C  0.04540933  0.30245777  0.88176794     0.13200
C4104       C  0.05512149  0.32667088  0.86960881    -0.23000
C4105       C  0.06491875  0.31899094  0.77523040    -0.06000
H4106       H  0.04494632  0.27507918  0.80669395     0.14700
C4107       C  0.03832619  0.29688191  0.91874065    -0.16200
H4108       H  0.05765694  0.34115044  0.88694252     0.09000
H4109       H  0.14187086  0.40522442  0.79496090     0.06900
H4110       H  0.13754905  0.41805836  0.83375269     0.08100
H4111       H  0.13767956  0.43160473  0.79367847     0.07100
H4112       H  0.01962041  0.34379498  0.83343126     0.02000
H4113       H  0.02136718  0.32916328  0.79477036     0.02500
H4114       H  0.01615085  0.35476745  0.79256607     0.06000
H4115       H  0.06158671  0.30229627  0.76118118     0.05000
H4116       H  0.08474839  0.33274839  0.77302118    -0.00800
H4117       H  0.05397036  0.32628192  0.76280530     0.00700
H4118       H  0.04208074  0.31360514  0.93306067     0.04300
H4119       H  0.04902280  0.28913794  0.93074480     0.06300
H4120       H  0.01840910  0.28342439  0.92096792     0.07100
C4121       C  0.22186176  0.45156286  0.78142360    -0.22500
C4122       C  0.22577544  0.46401729  0.81243453     0.09500
C4123       C  0.21223052  0.47582241  0.81994933     0.09900
C4124       C  0.19501717  0.47489441  0.79629770    -0.17400
C4125       C  0.19098405  0.46248330  0.76514327    -0.27800
C4126       C  0.20467370  0.45068891  0.75755678     0.18200
C4127       C  0.24466681  0.46518560  0.83637669     0.12200
C4128       C  0.21592899  0.48937163  0.85299809    -0.12200
H4129       H  0.18457898  0.48392656  0.80222139     0.12500
C4130       C  0.20212426  0.43814126  0.72388710    -0.23000
H4131       H  0.23257551  0.44278076  0.77573225     0.08100
C4132       C  0.23973550  0.44575078  0.85888013     0.04500
C4133       C  0.25803434  0.44810473  0.88176494    -0.20200
C4134       C  0.28118621  0.46952081  0.88282126    -0.12500
C4135       C  0.28612440  0.48892839  0.85980650     0.13200
C4136       C  0.26775264  0.48644745  0.83699291    -0.23000
C4137       C  0.21509205  0.42263628  0.85885956    -0.06000
H4138       H  0.25419186  0.43311341  0.89902379     0.14700
C4139       C  0.31087941  0.51196727  0.85808481    -0.16200
H4140       H  0.27137218  0.50121851  0.81940197     0.09000
H4141       H  0.21527287  0.43122347  0.72159072     0.06900
H4142       H  0.20583745  0.45126162  0.70266637     0.08100
H4143       H  0.18331471  0.42221266  0.72128810     0.07100
H4144       H  0.23519376  0.50461642  0.85479135     0.02000
H4145       H  0.21198415  0.47663166  0.87477370     0.02500
H4146       H  0.20361348  0.49729711  0.85503943     0.06000
H4147       H  0.21415500  0.40930739  0.87826999     0.05000
H4148       H  0.21162201  0.41375488  0.83348458    -0.00800
H4149       H  0.20040771  0.42708854  0.86455875     0.00700
H4150       H  0.31170341  0.52439136  0.83730840     0.04300
H4151       H  0.32546086  0.50722570  0.85314591     0.06300
H4152       H  0.31466854  0.52224438  0.88235364     0.07100
C4153       C  0.26972110  0.47475338  0.59255998    -0.22500
C4154       C  0.24729659  0.46623444  0.57530443     0.09500
C4155       C  0.24610189  0.46131659  0.54017039     0.09900
C4156       C  0.26749443  0.46590904  0.52279558    -0.17400
C4157       C  0.29021511  0.47500651  0.53960566    -0.27800
C4158       C  0.29128952  0.47930566  0.57518753     0.18200
C4159       C  0.22579938  0.46469820  0.59356613     0.12200
C4160       C  0.22224337  0.45137982  0.52092077    -0.12200
H4161       H  0.26950228  0.47163996  0.99092661     0.12500
C4162       C  0.31479107  0.48989770  0.59541185    -0.23000
H4163       H  0.27057324  0.47867403  0.61958394     0.08100
C4164       C  0.20869400  0.44338773  0.61117154     0.04500
C4165       C  0.18859104  0.44304002  0.62769748    -0.20200
C4166       C  0.18560373  0.46377457  0.62777583    -0.12500
C4167       C  0.20263162  0.48499523  0.60964213     0.13200
C4168       C  0.22232100  0.48505058  0.59245583    -0.23000
C4169       C  0.21202251  0.42130002  0.61315808    -0.06000
H4170       H  0.17591170  0.42697910  0.64218521     0.14700
C4171       C  0.20007791  0.50759083  0.60809829    -0.16200
H4172       H  0.23537955  0.50123007  0.57850309     0.09000
H4173       H  0.31328380  0.47644244  0.61500132     0.06900
H4174       H  0.31783817  0.50684831  0.60841479     0.08100
H4175       H  0.33125211  0.49495366  0.57965052     0.07100
H4176       H  0.21525374  0.46446438  0.52245993     0.02000
H4177       H  0.20841557  0.43355006  0.53209219     0.02500
H4178       H  0.22449669  0.44838580  0.49357562     0.06000
H4179       H  0.19710924  0.40621900  0.62811015     0.05000
H4180       H  0.22981036  0.42637790  0.62566224    -0.00800
H4181       H  0.21196284  0.41439323  0.58713547     0.00700
H4182       H  0.20275185  0.51590765  0.63374808     0.04300
H4183       H  0.18156187  0.50270496  0.59839662     0.06300
H4184       H  0.21397613  0.52174593  0.59088528     0.07100
C4185       C  0.11975247  0.55407718  0.63008624    -0.22500
C4186       C  0.11883750  0.54859342  0.59527053     0.09500
C4187       C  0.11802648  0.52666746  0.58507965     0.09900
C4188       C  0.11930824  0.51128437  0.60992102    -0.17400
C4189       C  0.12084798  0.51711751  0.64457453    -0.27800
C4190       C  0.12045409  0.53838359  0.65496888     0.18200
C4191       C  0.12086944  0.56705580  0.57000423     0.12200
C4192       C  0.11572327  0.51942877  0.54809930    -0.12200
H4193       H  0.11940944  0.49477970  0.60231289     0.12500
C4194       C  0.12185795  0.54505363  0.69211214    -0.23000
H4195       H  0.12064153  0.57104799  0.63772893     0.08100
C4196       C  0.10211332  0.57297816  0.56545385     0.04500
C4197       C  0.10593855  0.59188916  0.54283661    -0.20200
C4198       C  0.12810793  0.60506041  0.52466520    -0.12500
C4199       C  0.14641519  0.59814751  0.52810042     0.13200
C4200       C  0.14260865  0.57949519  0.55108136    -0.23000
C4201       C  0.07804852  0.55931221  0.58428961    -0.06000
H4202       H  0.09296826  0.59688718  0.03945155     0.14700
C4203       C  0.16992766  0.60992360  0.50761411    -0.16200
H4204       H  0.15691115  0.57479523  0.55480014     0.09000
H4205       H  0.12193847  0.56260975  0.69567295     0.06900
H4206       H  0.13894631  0.54700540  0.70352881     0.08100
H4207       H  0.10570800  0.53052425  0.70592934     0.07100
H4208       H  0.13209302  0.53291377  0.53358823     0.02000
H4209       H  0.09899735  0.51857146  0.53709504     0.02500
H4210       H  0.11417966  0.50117079  0.54491386     0.06000
H4211       H  0.06507783  0.56569960  0.57677384     0.05000
H4212       H  0.08113421  0.56209825  0.61214762    -0.00800
H4213       H  0.06929139  0.53944563  0.57854060     0.00700
H4214       H  0.18075203  0.60050585  0.51154374     0.04300
H4215       H  0.18179376  0.62927539  0.51544085     0.06300
H4216       H  0.16561743  0.60896132  0.48001194     0.07100
C4217       C  0.15010549  0.60978756  0.82011030    -0.22500
C4218       C  0.14470588  0.58734027  0.83520088     0.09500
C4219       C  0.14136007  0.58438902  0.87068563     0.09900
C4220       C  0.14369267  0.60389526  0.89039917    -0.17400
C4221       C  0.14966481  0.62672256  0.87589003    -0.27800
C4222       C  0.15256804  0.62958279  0.84005620     0.18200
C4223       C  0.14248929  0.56681134  0.81399662     0.12200
C4224       C  0.13534612  0.56056791  0.88789680    -0.12200
H4225       H  0.14076426  0.60115559  0.91762039     0.12500
C4226       C  0.15872152  0.65337692  0.82283350    -0.23000
H4227       H  0.15250375  0.61181666  0.79271831     0.08100
C4228       C  0.11971089  0.54924209  0.80012685     0.04500
C4229       C  0.11779902  0.52858273  0.78353003    -0.20200
C4230       C  0.13827993  0.52532825  0.77996705    -0.12500
C4231       C  0.16112084  0.54297224  0.79389213     0.13200
C4232       C  0.16288228  0.56341037  0.81097945    -0.23000
C4233       C  0.09747960  0.55238815  0.80282216    -0.06000
H4234       H  0.10045525  0.51535018  0.77223586     0.14700
C4235       C  0.18349026  0.53997747  0.79163175    -0.16200
H4236       H  0.18015986  0.57669923  0.82237097     0.09000
H4237       H  0.16109905  0.65257576  0.79489733     0.06900
H4238       H  0.17613094  0.66844894  0.83334785     0.08100
H4239       H  0.14363305  0.65749553  0.82697250     0.07100
H4240       H  0.15034632  0.55639067  0.88328254     0.02000
H4241       H  0.11788021  0.54547083  0.87759864     0.02500
H4242       H  0.13319191  0.56132685  0.91589418     0.06000
H4243       H  0.08113251  0.53706654  0.79049353     0.05000
H4244       H  0.10129184  0.56972847  0.79011189    -0.00800
H4245       H  0.09300664  0.55304550  0.83003509     0.00700
H4246       H  0.18919616  0.54086289  0.76467253     0.04300
H4247       H  0.17928948  0.52207072  0.80281596     0.06300
H4248       H  0.19932644  0.55464159  0.80571041     0.07100
loop_ 
_geom_bond_atom_site_label_1 
_geom_bond_atom_site_label_2 
_geom_bond_distance 
_geom_bond_site_symmetry_2 
_ccdc_geom_bond_type 
O1           C16   1.253       .  A
O1           Al9   1.873       .  S
C2           O12   1.270       .  A
C2            O3   1.278       .  A
C2         C2001   1.487       .  S
O3           Al5   1.955       .  S
O4            C6   1.252       .  A
O4           Al5   1.858       .  S
Al5          O13   1.910       .  S
Al5          O15   1.948       .  S
Al5          O14   1.786       .  S
C6           O19   1.263       .  A
C6         C1969   1.477       .  S
O7           C17   1.256       .  A
O7           Al9   1.908       .  S
O8           C21   1.269       .  A
O8          Al18   1.888       .  S
Al9          O22   1.931       .  S
Al9          O19   1.931       .  S
Al9          O14   1.792       .  S
O10          C17   1.251       .  A
O10         Al18   1.898       .  S
O11          C20   1.252       .  A
O11         Al18   1.901       .  S
O12         Al18   1.890       .  S
O13          C20   1.255       .  A
O14         Al18   1.785       .  S
O15          C16   1.268       .  A
C16        C1937   1.486       .  S
C17        C2106   1.479       .  S
C20        C2042   1.482       .  S
C21          O22   1.272       .  A
C21        C2065   1.460       .  S
O23          C38   1.258       .  A
O23         Al31   1.891   1_655  S
C24          O34   1.265       .  A
C24          O25   1.268       .  A
C24        C1818   1.494       .  S
O25         Al27   1.919   1_455  S
O26          C28   1.254       .  A
O26         Al27   1.885   1_455  S
Al27         O35   1.900       .  S
Al27         O37   1.910       .  S
Al27         O36   1.782       .  S
C28          O41   1.261       .  A
C28        C1841   1.494       .  S
O29          C39   1.263       .  A
O29         Al31   1.914       .  S
O30          C43   1.267       .  A
O30         Al40   1.923       .  S
Al31         O44   1.905   1_455  S
Al31         O41   1.916       .  S
Al31         O36   1.790   1_455  S
O32          C39   1.259       .  A
O32         Al40   1.895   1_455  S
O33          C42   1.256       .  A
O33         Al40   1.907       .  S
O34         Al40   1.908   1_455  S
O35          C42   1.257       .  A
O36         Al40   1.785       .  S
O37          C38   1.264       .  A
C38        C1873   1.495       .  S
C39        C1978   1.476       .  S
C42        C1905   1.497       .  S
C43          O44   1.263       .  A
C43        C1777   1.471       .  S
O45          C60   1.274       .  A
O45         Al53   1.954       .  S
C46          O56   1.276       .  A
C46        O2171   1.259       .  A
C46        C1649   1.493       .  S
O47        C2170   1.261   1_554  A
O47         Al49   1.879       .  S
O48          C50   1.257       .  A
O48         Al49   1.910       .  S
Al49         O57   1.915       .  S
Al49         O59   1.870       .  S
Al49         O58   1.781       .  S
C50          O63   1.260       .  A
C50        C1690   1.494       .  S
O51          C61   1.268       .  A
O51         Al53   1.943       .  S
O52          C65   1.266       .  A
O52         Al62   1.943       .  S
Al53         O66   1.889       .  S
Al53         O63   1.920       .  S
Al53         O58   1.783       .  S
O54          C61   1.257   1_556  A
O54         Al62   1.880   1_556  S
O55          C64   1.259       .  A
O55       Al2186   1.912       .  S
O56       Al2186   1.958       .  S
O57        C2188   1.260       .  A
O58         Al62   1.782       .  S
O59          C60   1.261       .  A
C60        C1722   1.483       .  S
C61        C1786   1.480       .  S
Al62       O2179   1.923       .  S
Al62       O2180   1.947   1_554  S
C64        O2181   1.258       .  A
C64        C1745   1.479       .  S
C65          O66   1.258       .  A
C65        C1946   1.489       .  S
O67          C82   1.254       .  A
O67         Al75   1.873       .  S
C68          O78   1.261       .  A
C68          O69   1.274       .  A
C68        C1754   1.472       .  S
O69         Al71   1.958       .  S
O70          C72   1.253       .  A
O70         Al71   1.855       .  S
Al71         O79   1.900       .  S
Al71         O81   1.938       .  S
Al71         O80   1.783       .  S
C72          O85   1.267       .  A
C72        C1626   1.478       .  S
O73          C83   1.255       .  A
O73         Al75   1.902       .  S
O74          C87   1.265       .  A
O74         Al84   1.873       .  S
Al75         O88   1.955       .  S
Al75         O85   1.942       .  S
Al75         O80   1.783       .  S
O76          C83   1.256       .  A
O76         Al84   1.907       .  S
O77          C86   1.258       .  A
O77         Al84   1.913       .  S
O78         Al84   1.870       .  S
O79          C86   1.255       .  A
O80         Al84   1.783       .  S
O81          C82   1.265       .  A
C82        C1530   1.481       .  S
C83        C1713   1.479       .  S
C86        C1594   1.494       .  S
C87          O88   1.275       .  A
C87        C1553   1.498       .  S
O89         C104   1.251       .  A
O89         Al97   1.858       .  S
C90         O100   1.263       .  A
C90          O91   1.278       .  A
C90        C2097   1.495       .  S
O91         Al93   1.972       .  S
O92          C94   1.250       .  A
O92         Al93   1.850       .  S
Al93        O101   1.901       .  S
Al93        O103   1.951       .  S
Al93        O102   1.774       .  S
C94         O107   1.270       .  A
C94        C1617   1.493       .  S
O95         C105   1.256   1_556  A
O95       Al2221   1.891       .  S
O96        C2233   1.261       .  A
O96        Al106   1.859       .  S
Al97        O107   1.958       .  S
Al97       O2219   1.904       .  S
Al97       O2234   1.971       .  S
Al97        O102   1.780       .  S
O98        C2229   1.254       .  A
O98        Al106   1.899       .  S
O99         C108   1.254       .  A
O99        Al106   1.901       .  S
O100       Al106   1.861       .  S
O101        C108   1.255       .  A
O102       Al106   1.778       .  S
O103        C104   1.268       .  A
C104       C1425   1.477       .  S
C105       O2222   1.258   1_554  A
C105       C2074   1.482       .  S
C108       C1489   1.482       .  S
C109        O110   1.278       .  A
C109       O2220   1.258   1_554  A
C109       C1457   1.485       .  S
O110      Al2221   1.973   1_554  S
O111        C126   1.253       .  A
O111       Al119   1.869   1_655  S
C112        O122   1.263       .  A
C112        O113   1.276       .  A
C112       C1361   1.480       .  S
O113       Al115   1.960   1_455  S
O114        C116   1.252       .  A
O114       Al115   1.855   1_455  S
Al115       O123   1.898       .  S
Al115       O125   1.934       .  S
Al115       O124   1.783   1_655  S
C116        O129   1.270       .  A
C116       C1434   1.485       .  S
O117        C127   1.255       .  A
O117       Al119   1.909       .  S
O118        C131   1.262       .  A
O118       Al128   1.865   1_655  S
Al119       O132   1.974   1_455  S
Al119       O129   1.956       .  S
Al119       O124   1.780       .  S
O120        C127   1.256       .  A
O120       Al128   1.905       .  S
O121        C130   1.256       .  A
O121       Al128   1.906   1_655  S
O122       Al128   1.867       .  S
O123        C130   1.253       .  A
O124       Al128   1.781       .  S
O125        C126   1.264       .  A
C126       C1521   1.475       .  S
C127       C1393   1.490       .  S
C130       C1329   1.482       .  S
C131        O132   1.280       .  A
C131       C1306   1.491       .  S
O133        C148   1.272       .  A
O133       Al141   1.942       .  S
C134        O144   1.275       .  A
C134        O135   1.263       .  A
C134       C1178   1.486       .  S
O135       Al137   1.865       .  S
O136        C138   1.259       .  A
O136       Al137   1.911       .  S
Al137       O145   1.907       .  S
Al137       O147   1.869       .  S
Al137       O146   1.784       .  S
C138        O151   1.257       .  A
C138       C1201   1.491       .  S
O139        C149   1.262       .  A
O139       Al141   1.930       .  S
O140        C153   1.270       .  A
O140       Al150   1.952       .  S
Al141       O154   1.873       .  S
Al141       O151   1.905       .  S
Al141       O146   1.785       .  S
O142        C149   1.251       .  A
O142       Al150   1.860       .  S
O143        C152   1.256       .  A
O143       Al150   1.905       .  S
O144       Al150   1.957       .  S
O145        C152   1.256       .  A
O146       Al150   1.782       .  S
O147        C148   1.262       .  A
C148       C1498   1.476       .  S
C149       C1265   1.471       .  S
C152       C1466   1.485       .  S
C153        O154   1.255       .  A
C153       C1233   1.488       .  S
O155        C170   1.276       .  A
O155       Al163   1.958   1_565  S
C156        O166   1.276       .  A
C156        O157   1.264       .  A
C156       C1105   1.490       .  S
O157       Al159   1.881       .  S
O158        C160   1.258       .  A
O158       Al159   1.914       .  S
Al159       O167   1.919   1_545  S
Al159       O169   1.875   1_545  S
Al159       O168   1.783       .  S
C160        O173   1.255       .  A
C160       C1137   1.486       .  S
O161        C171   1.267       .  A
O161       Al163   1.945       .  S
O162        C175   1.267       .  A
O162       Al172   1.944       .  S
Al163       O176   1.873   1_545  S
Al163       O173   1.899       .  S
Al163       O168   1.781       .  S
O164        C171   1.252       .  A
O164       Al172   1.858   1_545  S
O165        C174   1.255       .  A
O165       Al172   1.900       .  S
O166       Al172   1.963   1_545  S
O167        C174   1.260       .  A
O168       Al172   1.778   1_545  S
O169        C170   1.264       .  A
C170       C1402   1.477       .  S
C171       C1073   1.477       .  S
C174       C1370   1.486       .  S
C175        O176   1.254       .  A
C175       C1242   1.483       .  S
O177        C192   1.275       .  A
O177      Al2309   1.948       .  S
C178        O188   1.280       .  A
C178        O179   1.270       .  A
C178        C954   1.497       .  S
O179       Al181   1.875       .  S
O180       C2306   1.257       .  A
O180       Al181   1.916       .  S
Al181       O189   1.911       .  S
Al181       O191   1.878       .  S
Al181       O190   1.783       .  S
C182        O195   1.254       .  A
C182       O2304   1.255       .  A
C182        C986   1.489       .  S
O183        C193   1.262       .  A
O183       Al185   1.926       .  S
O184        C197   1.267       .  A
O184       Al194   1.940       .  S
Al185       O198   1.862       .  S
Al185      O2301   1.952   1_554  S
Al185      O2319   1.906       .  S
Al185       O190   1.784       .  S
O186        C193   1.252       .  A
O186       Al194   1.867       .  S
O187        C196   1.253       .  A
O187       Al194   1.908       .  S
O188       Al194   1.962       .  S
O189        C196   1.253       .  A
O190       Al194   1.780       .  S
O191       C2316   1.268   1_554  A
C192       O2315   1.266       .  A
C192       C1018   1.471       .  S
C193       C1274   1.474       .  S
O195      Al2309   1.907       .  S
C196       C1041   1.486       .  S
C197        O198   1.253       .  A
C197       C1082   1.481       .  S
O199        C214   1.252       .  A
O199       Al207   1.863   1_565  S
C200        O210   1.261       .  A
C200        O201   1.274       .  A
C200       C1914   1.481       .  S
O201       Al203   1.957   1_545  S
O202        C204   1.254       .  A
O202       Al203   1.863   1_545  S
Al203       O211   1.903       .  S
Al203       O213   1.946       .  S
Al203       O212   1.780   1_565  S
C204        O217   1.267       .  A
C204        C881   1.476       .  S
O205        C215   1.253       .  A
O205       Al207   1.886       .  S
O206        C219   1.261       .  A
O206       Al216   1.862   1_565  S
Al207       O220   1.951   1_545  S
Al207       O217   1.937       .  S
Al207       O212   1.780       .  S
O208        C215   1.259       .  A
O208       Al216   1.912       .  S
O209        C218   1.260       .  A
O209       Al216   1.913   1_565  S
O210       Al216   1.870       .  S
O211        C218   1.257       .  A
O212       Al216   1.780       .  S
O213        C214   1.266       .  A
C214        C913   1.477       .  S
C215       C1882   1.479       .  S
C218        C849   1.490       .  S
C219        O220   1.272       .  A
C219        C817   1.492       .  S
O221        C236   1.252       .  A
O221      Al2353   1.858       .  S
C222        O232   1.262       .  A
C222        O223   1.273       .  A
C222       C1210   1.482       .  S
O223       Al225   1.957       .  S
O224        C226   1.251       .  A
O224       Al225   1.851       .  S
Al225       O233   1.892       .  S
Al225       O235   1.951       .  S
Al225       O234   1.784       .  S
C226        O239   1.266       .  A
C226        C721   1.475       .  S
O227        C237   1.254   1_556  A
O227       Al229   1.889       .  S
O228       C2365   1.262       .  A
O228       Al238   1.876       .  S
Al229       O242   1.953   1_556  S
Al229      O2345   1.864   1_556  S
Al229      O2363   1.939       .  S
Al229      O2358   1.782       .  S
O230       C2361   1.260       .  A
O230       Al238   1.922       .  S
O231        C240   1.260       .  A
O231       Al238   1.917       .  S
O232       Al238   1.875       .  S
O233        C240   1.255       .  A
O234       Al238   1.780       .  S
O234      Al2353   1.781       .  S
O235        C236   1.268       .  A
C236        C922   1.484       .  S
C237       O2354   1.262   1_554  A
C237       C1169   1.492       .  S
O239      Al2353   1.940       .  S
C240        C785   1.480       .  S
C241        O242   1.273       .  A
C241       O2352   1.261   1_554  A
C241        C762   1.488       .  S
O243        C258   1.253       .  A
O243       Al251   1.862       .  S
C244        O254   1.264       .  A
C244        O245   1.277       .  A
C244        C977   1.483       .  S
O245       Al247   1.965       .  S
O246        C248   1.251       .  A
O246       Al247   1.853       .  S
Al247       O255   1.897       .  S
Al247       O257   1.935       .  S
Al247       O256   1.784       .  S
C248        O261   1.266       .  A
C248        C730   1.477       .  S
O249        C259   1.253       .  A
O249       Al251   1.900       .  S
O250        C263   1.265       .  A
O250       Al260   1.876       .  S
Al251       O264   1.965       .  S
Al251       O261   1.940       .  S
Al251       O256   1.783       .  S
O252        C259   1.256       .  A
O252       Al260   1.905       .  S
O253        C262   1.254       .  A
O253       Al260   1.904       .  S
O254       Al260   1.872       .  S
O255        C262   1.254       .  A
O256       Al260   1.782       .  S
O257        C258   1.265       .  A
C258        C890   1.476       .  S
C259        C945   1.484       .  S
C262       C1658   1.489       .  S
C263        O264   1.278       .  A
C263       C1681   1.482       .  S
O265        C280   1.252       .  A
O265       Al273   1.863       .  S
C266        O276   1.269       .  A
C266        O267   1.281       .  A
C266       C1050   1.477       .  S
O267       Al269   1.964       .  S
O268        C270   1.254       .  A
O268       Al269   1.873       .  S
Al269       O277   1.916       .  S
Al269       O279   1.938       .  S
Al269       O278   1.781       .  S
C270        O283   1.263       .  A
C270        C657   1.480       .  S
O271        C281   1.252       .  A
O271       Al273   1.907       .  S
O272        C285   1.269       .  A
O272       Al282   1.870       .  S
Al273       O286   1.955       .  S
Al273       O283   1.924       .  S
Al273       O278   1.783       .  S
O274        C281   1.248       .  A
O274       Al282   1.893       .  S
O275        C284   1.248       .  A
O275       Al282   1.895       .  S
O276       Al282   1.874       .  S
O277        C284   1.254       .  A
O278       Al282   1.780       .  S
O279        C280   1.266       .  A
C280        C698   1.482       .  S
C281       C1009   1.487       .  S
C284        C634   1.495       .  S
C285        O286   1.279       .  A
C285        C593   1.480       .  S
O287        C302   1.252       .  A
O287       Al295   1.862       .  S
C288        O298   1.265       .  A
C288        O289   1.276       .  A
C288       C1850   1.491       .  S
O289       Al291   1.954       .  S
O290        C292   1.254       .  A
O290       Al291   1.872       .  S
Al291       O299   1.910       .  S
Al291       O301   1.941       .  S
Al291       O300   1.781       .  S
C292        O305   1.266       .  A
C292        C561   1.479       .  S
O293        C303   1.254       .  A
O293       Al295   1.901       .  S
O294        C307   1.262       .  A
O294       Al304   1.860       .  S
Al295       O308   1.956       .  S
Al295       O305   1.939       .  S
Al295       O300   1.783       .  S
O296        C303   1.258       .  A
O296       Al304   1.922       .  S
O297        C306   1.258       .  A
O297       Al304   1.921       .  S
O298       Al304   1.863       .  S
O299        C306   1.255       .  A
O300       Al304   1.785       .  S
O301        C302   1.266       .  A
C302        C666   1.480       .  S
C303       C1809   1.492       .  S
C306       C1114   1.502       .  S
C307        O308   1.276       .  A
C307       C1146   1.474       .  S
O309        C324   1.251       .  A
O309       Al317   1.856       .  S
C310        O311   1.275       .  A
C310       O2444   1.265   1_554  A
C310       C2033   1.491       .  S
O311      Al2437   1.953   1_554  S
O312        C314   1.252       .  A
O312       Al313   1.857       .  S
Al313       O323   1.947       .  S
Al313      O2435   1.959       .  S
Al313      O2445   1.895       .  S
Al313       O322   1.782       .  S
C314        O327   1.266       .  A
C314        C570   1.477       .  S
O315        C325   1.256       .  A
O315       Al317   1.898       .  S
O316        C329   1.260       .  A
O316       Al326   1.866       .  S
Al317       O330   1.951       .  S
Al317       O327   1.942       .  S
Al317       O322   1.783       .  S
O318        C325   1.260       .  A
O318       Al326   1.928       .  S
O319       C2452   1.262       .  A
O319       Al326   1.934       .  S
O320       C2434   1.262       .  A
O320       Al326   1.871       .  S
O321        C328   1.252       .  A
O321      Al2437   1.893   1_554  S
O322       Al326   1.783       .  S
O323        C324   1.267       .  A
C324        C689   1.476       .  S
C325       C2010   1.494       .  S
C328       O2443   1.258   1_554  A
C328        C529   1.493       .  S
C329        O330   1.275       .  A
C329        C497   1.487       .  S
O331        C346   1.263       .  A
O331       Al339   1.903       .  S
C332        O342   1.262       .  A
C332        O333   1.266       .  A
C332        C794   1.493       .  S
O333       Al335   1.911       .  S
O334        C336   1.257       .  A
O334       Al335   1.894       .  S
Al335       O343   1.893       .  S
Al335       O345   1.915       .  S
Al335       O344   1.778       .  S
C336        O349   1.259       .  A
C336        C753   1.495       .  S
O337        C347   1.266       .  A
O337       Al339   1.920       .  S
O338        C351   1.262       .  A
O338       Al348   1.911       .  S
Al339       O352   1.909       .  S
Al339       O349   1.916       .  S
Al339       O344   1.782       .  S
O340        C347   1.261       .  A
O340       Al348   1.905       .  S
O341        C350   1.258       .  A
O341       Al348   1.905       .  S
O342       Al348   1.901       .  S
O343        C350   1.256       .  A
O344       Al348   1.781       .  S
O345        C346   1.267       .  A
C346        C538   1.493       .  S
C347        C433   1.469       .  S
C350        C506   1.477       .  S
C351        O352   1.261       .  A
C351        C474   1.468       .  S
O353        C368   1.277       .  A
O353       Al361   1.958       .  S
C354        O364   1.278       .  A
C354       O2479   1.267       .  A
C354       C1585   1.479       .  S
O355       C2478   1.267   1_554  A
O355       Al357   1.868       .  S
O356        C358   1.252       .  A
O356       Al357   1.899       .  S
Al357       O365   1.889       .  S
Al357       O367   1.870       .  S
Al357       O366   1.784       .  S
C358        O371   1.257       .  A
C358       C1562   1.491       .  S
O359        C369   1.264       .  A
O359       Al361   1.934       .  S
O360        C373   1.264       .  A
O360       Al370   1.927       .  S
Al361       O374   1.866       .  S
Al361       O371   1.917       .  S
Al361       O366   1.784       .  S
O362        C369   1.253       .  A
O362       Al370   1.868       .  S
O363        C372   1.253       .  A
O363      Al2494   1.906       .  S
O364      Al2494   1.958       .  S
O365       C2496   1.249       .  A
O366       Al370   1.782       .  S
O367        C368   1.265       .  A
C368        C625   1.477       .  S
C369        C401   1.480       .  S
Al370      O2487   1.909       .  S
Al370      O2488   1.953   1_554  S
C372       O2489   1.250       .  A
C372        C602   1.489       .  S
C373        O374   1.254       .  A
C373        C465   1.475       .  S
O375        C390   1.273       .  A
O375       Al383   1.948       .  S
C376        O386   1.275       .  A
C376        O377   1.265       .  A
C376        C858   1.494       .  S
O377       Al379   1.867       .  S
O378        C380   1.258       .  A
O378       Al379   1.920       .  S
Al379       O387   1.914       .  S
Al379       O389   1.869       .  S
Al379       O388   1.781       .  S
C380        O393   1.258       .  A
C380        C826   1.497       .  S
O381        C391   1.264       .  A
O381       Al383   1.935       .  S
O382        C395   1.267       .  A
O382       Al392   1.940       .  S
Al383       O396   1.871       .  S
Al383       O393   1.908       .  S
Al383       O388   1.785       .  S
O384        C391   1.252       .  A
O384       Al392   1.863       .  S
O385        C394   1.255       .  A
O385       Al392   1.905       .  S
O386       Al392   1.953       .  S
O387        C394   1.257       .  A
O388       Al392   1.781       .  S
O389        C390   1.263       .  A
C390       C1338   1.467       .  S
C391        C442   1.475       .  S
C394       C1297   1.491       .  S
C395        O396   1.254       .  A
C395        C410   1.479       .  S
C397        C398   1.400       .  A
C397        C402   1.406       .  A
C397        H407   1.084       .  S
C398        C403   1.489       .  S
C398       C2523   1.415       .  A
C399        C400   1.409       .  A
C399       C2522   1.415   1_554  A
C399        C404   1.507       .  S
C400        C401   1.403       .  A
C400        H405   1.083       .  S
C401       C2526   1.416   1_554  A
C402       C2525   1.417       .  A
C402        C406   1.507       .  S
C403        C408   1.411       .  A
C403        C412   1.404       .  A
C404        H420   1.110   1_554  S
C404        H421   1.109       .  S
C404        H422   1.111       .  S
C406        H417   1.111       .  S
C406        H418   1.109       .  S
C406        H419   1.110       .  S
C408        C409   1.407       .  A
C408        C413   1.506       .  S
C409        C410   1.406       .  A
C409        H414   1.085       .  S
C410        C411   1.416       .  A
C411        C412   1.407       .  A
C411        C415   1.508       .  S
C412        H416   1.084       .  S
C413        H423   1.111       .  S
C413        H424   1.110       .  S
C413        H425   1.110       .  S
C415        H426   1.110       .  S
C415        H427   1.107       .  S
C415        H428   1.110       .  S
C429        C430   1.403       .  A
C429        C434   1.403       .  A
C429        H439   1.084       .  S
C430        C435   1.484       .  S
C430        C431   1.411       .  A
C431        C432   1.406       .  A
C431        C436   1.505       .  S
C432        C433   1.403       .  A
C432        H437   1.084       .  S
C433        C434   1.413       .  A
C434        C438   1.507       .  S
C435        C440   1.413       .  A
C435        C444   1.400       .  A
C436        H452   1.110       .  S
C436        H453   1.110       .  S
C436        H454   1.111       .  S
C438        H449   1.110       .  S
C438        H450   1.110       .  S
C438        H451   1.109       .  S
C440        C441   1.407       .  A
C440        C445   1.506       .  S
C441        C442   1.402       .  A
C441        H446   1.084       .  S
C442        C443   1.417       .  A
C443        C444   1.403       .  A
C443        C447   1.508       .  S
C444        H448   1.084       .  S
C445        H455   1.111       .  S
C445        H456   1.110       .  S
C445        H457   1.110       .  S
C447        H458   1.110       .  S
C447        H459   1.108       .  S
C447        H460   1.110       .  S
C461        C462   1.404       .  A
C461        C466   1.405       .  A
C461        H471   1.085       .  S
C462        C467   1.483       .  S
C462        C463   1.408       .  A
C463        C464   1.403       .  A
C463        C468   1.506       .  S
C464        C465   1.406       .  A
C464        H469   1.085       .  S
C465        C466   1.415       .  A
C466        C470   1.508       .  S
C467        C472   1.412       .  A
C467        C476   1.403       .  A
C468        H484   1.110       .  S
C468        H485   1.110       .  S
C468        H486   1.111       .  S
C470        H481   1.111       .  S
C470        H482   1.110       .  S
C470        H483   1.106       .  S
C472        C473   1.401       .  A
C472        C477   1.507       .  S
C473        C474   1.400       .  A
C473        H478   1.084       .  S
C474        C475   1.415       .  A
C475        C476   1.406       .  A
C475        C479   1.508       .  S
C476        H480   1.084       .  S
C477        H487   1.111       .  S
C477        H488   1.110       .  S
C477        H489   1.110       .  S
C479        H490   1.110       .  S
C479        H491   1.109       .  S
C479        H492   1.110       .  S
C493        C494   1.397       .  A
C493        C498   1.400       .  A
C493        H503   1.085       .  S
C494        C499   1.478       .  S
C494        C495   1.408       .  A
C495        C496   1.405       .  A
C495        C500   1.506       .  S
C496        C497   1.407       .  A
C496        H501   1.084       .  S
C497        C498   1.424       .  A
C498        C502   1.511       .  S
C499        C504   1.411       .  A
C499        C508   1.400       .  A
C500        H516   1.110       .  S
C500        H517   1.109       .  S
C500        H518   1.111       .  S
C502        H513   1.109       .  S
C502        H514   1.111       .  S
C502        H515   1.111       .  S
C504        C505   1.402       .  A
C504        C509   1.508       .  S
C505        C506   1.404       .  A
C505        H510   1.084       .  S
C506        C507   1.417       .  A
C507        C508   1.402       .  A
C507        C511   1.507       .  S
C508        H512   1.085       .  S
C509        H519   1.111       .  S
C509        H520   1.110       .  S
C509        H521   1.109       .  S
C511        H522   1.110       .  S
C511        H523   1.105       .  S
C511        H524   1.110       .  S
C525        C526   1.400       .  A
C525        C530   1.406       .  A
C525        H535   1.085       .  S
C526        C531   1.485       .  S
C526        C527   1.409       .  A
C527        C528   1.406       .  A
C527        C532   1.506       .  S
C528        C529   1.408       .  A
C528        H533   1.084   1_554  S
C529        C530   1.422       .  A
C530       C2658   1.508       .  S
C531        C536   1.409       .  A
C531        C540   1.402       .  A
C532        H548   1.110       .  S
C532        H549   1.110       .  S
C532        H550   1.111   1_554  S
C534       C2654   1.508       .  S
C534        H546   1.111       .  S
C534        H547   1.110       .  S
C534       H2669   1.110       .  S
C536        C537   1.401       .  A
C536        C541   1.508       .  S
C537        C538   1.409       .  A
C537        H542   1.083       .  S
C538        C539   1.421       .  A
C539        C540   1.410       .  A
C539        C543   1.508       .  S
C540        H544   1.083       .  S
C541        H551   1.111       .  S
C541        H552   1.110       .  S
C541        H553   1.110       .  S
C543        H554   1.109       .  S
C543        H555   1.110       .  S
C543        H556   1.111       .  S
H545       C2658   1.110       .  S
C557        C558   1.401       .  A
C557        C562   1.406       .  A
C557        H567   1.084       .  S
C558        C563   1.489       .  S
C558        C559   1.414       .  A
C559        C560   1.408       .  A
C559        C564   1.506       .  S
C560        C561   1.402       .  A
C560        H565   1.084       .  S
C561        C562   1.418       .  A
C562        C566   1.508       .  S
C563        C568   1.415       .  A
C563        C572   1.401       .  A
C564        H580   1.110       .  S
C564        H581   1.109       .  S
C564        H582   1.111       .  S
C566        H577   1.109       .  S
C566        H578   1.110       .  S
C566        H579   1.109       .  S
C568       C2693   1.408   1_554  A
C568        C573   1.506   1_554  S
C569        C570   1.402       .  A
C569       C2692   1.408       .  A
C569        H574   1.084       .  S
C570       C2695   1.418       .  A
C571        C572   1.405       .  A
C571       C2694   1.419   1_554  A
C571        C575   1.509       .  S
C572        H576   1.086       .  S
C573        H585   1.109   1_556  S
C573       H2707   1.111       .  S
C573       H2708   1.110       .  S
C575        H586   1.111       .  S
C575        H587   1.109       .  S
C575        H588   1.110       .  S
H583       C2697   1.111       .  S
H584       C2697   1.110       .  S
C589        C590   1.403       .  A
C589        C594   1.408       .  A
C589        H599   1.084       .  S
C590        C595   1.478       .  S
C590        C591   1.409       .  A
C591        C592   1.397       .  A
C591        C596   1.509       .  S
C592        C593   1.406       .  A
C592        H597   1.085       .  S
C593        C594   1.415       .  A
C594        C598   1.506       .  S
C595        C600   1.408       .  A
C595        C604   1.397       .  A
C596        H612   1.110       .  S
C596        H613   1.109       .  S
C596        H614   1.111       .  S
C598        H609   1.110       .  S
C598        H610   1.111       .  S
C598        H611   1.110       .  S
C600        C601   1.406       .  A
C600        C605   1.506       .  S
C601        C602   1.409       .  A
C601        H606   1.083       .  S
C602        C603   1.423       .  A
C603        C604   1.401       .  A
C603        C607   1.510       .  S
C604        H608   1.085       .  S
C605        H615   1.111       .  S
C605        H616   1.110       .  S
C605        H617   1.110       .  S
C607        H618   1.110       .  S
C607        H619   1.110       .  S
C607        H620   1.111       .  S
C621        C622   1.399       .  A
C621        C626   1.399       .  A
C621        H631   1.085       .  S
C622        C627   1.485       .  S
C622        C623   1.413       .  A
C623        C624   1.408       .  A
C623        C628   1.505       .  S
C624        C625   1.403       .  A
C624        H629   1.084       .  S
C625        C626   1.419       .  A
C626        C630   1.510       .  S
C627        C632   1.410       .  A
C627        C636   1.398       .  A
C628        H644   1.109       .  S
C628        H645   1.110       .  S
C628        H646   1.111       .  S
C630        H641   1.111       .  S
C630        H642   1.111       .  S
C630        H643   1.107       .  S
C632        C633   1.407       .  A
C632        C637   1.506       .  S
C633        C634   1.408       .  A
C633        H638   1.084       .  S
C634        C635   1.425       .  A
C635        C636   1.404       .  A
C635        C639   1.510       .  S
C636        H640   1.085       .  S
C637        H647   1.111       .  S
C637        H648   1.110       .  S
C637        H649   1.110       .  S
C639        H650   1.111       .  S
C639        H651   1.110       .  S
C639        H652   1.110       .  S
C653        C654   1.406       .  A
C653        C658   1.408       .  A
C653        H663   1.084       .  S
C654        C659   1.490       .  S
C654        C655   1.411       .  A
C655        C656   1.405       .  A
C655        C660   1.507       .  S
C656        C657   1.407       .  A
C656        H661   1.085       .  S
C657        C658   1.415       .  A
C658        C662   1.508       .  S
C659        C664   1.411       .  A
C659        C668   1.405       .  A
C660        H676   1.110       .  S
C660        H677   1.110       .  S
C660        H678   1.111       .  S
C662        H673   1.110       .  S
C662        H674   1.110       .  S
C662        H675   1.106       .  S
C664        C665   1.405       .  A
C664        C669   1.506       .  S
C665        C666   1.407       .  A
C665        H670   1.085       .  S
C666        C667   1.415       .  A
C667        C668   1.407       .  A
C667        C671   1.508       .  S
C668        H672   1.085       .  S
C669        H679   1.111       .  S
C669        H680   1.110       .  S
C669        H681   1.110       .  S
C671        H682   1.111       .  S
C671        H683   1.107       .  S
C671        H684   1.110       .  S
C685        C686   1.404       .  A
C685        C690   1.406       .  A
C685        H695   1.085       .  S
C686        C691   1.488       .  S
C686        C687   1.410       .  A
C687        C688   1.406       .  A
C687        C692   1.506       .  S
C688        C689   1.406       .  A
C688        H693   1.085       .  S
C689        C690   1.415       .  A
C690        C694   1.508       .  S
C691        C696   1.409       .  A
C691        C700   1.406       .  A
C692        H708   1.110       .  S
C692        H709   1.110       .  S
C692        H710   1.111       .  S
C694        H705   1.110       .  S
C694        H706   1.110       .  S
C694        H707   1.107       .  S
C696        C697   1.404       .  A
C696        C701   1.507       .  S
C697        C698   1.408       .  A
C697        H702   1.085       .  S
C698        C699   1.415       .  A
C699        C700   1.409       .  A
C699        C703   1.507       .  S
C700        H704   1.085       .  S
C701        H711   1.111       .  S
C701        H712   1.110       .  S
C701        H713   1.110       .  S
C703        H714   1.111       .  S
C703        H715   1.106       .  S
C703        H716   1.110       .  S
C717        C718   1.406       .  A
C717        C722   1.408       .  A
C717        H727   1.084   1_565  S
C718        C723   1.483   1_565  S
C718        C719   1.408       .  A
C719        C720   1.399       .  A
C719        C724   1.507       .  S
C720        C721   1.406       .  A
C720        H725   1.084       .  S
C721        C722   1.411       .  A
C722        C726   1.506       .  S
C723        C728   1.407       .  A
C723        C732   1.404       .  A
C724        H740   1.110       .  S
C724        H741   1.110       .  S
C724        H742   1.111       .  S
C726        H737   1.111       .  S
C726        H738   1.111       .  S
C726        H739   1.110       .  S
C728        C729   1.402       .  A
C728        C733   1.506       .  S
C729        C730   1.408       .  A
C729        H734   1.085       .  S
C730        C731   1.415       .  A
C731        C732   1.405       .  A
C731        C735   1.506       .  S
C732        H736   1.085   1_545  S
C733        H743   1.111       .  S
C733        H744   1.110       .  S
C733        H745   1.110       .  S
C735        H746   1.110       .  S
C735        H747   1.106       .  S
C735        H748   1.110       .  S
C749        C750   1.400       .  A
C749        C754   1.407       .  A
C749        H759   1.085       .  S
C750        C755   1.482       .  S
C750        C751   1.408       .  A
C751        C752   1.403       .  A
C751        C756   1.506       .  S
C752        C753   1.410       .  A
C752        H757   1.083       .  S
C753        C754   1.423       .  A
C754        C758   1.508       .  S
C755        C760   1.410       .  A
C755        C764   1.398       .  A
C756        H772   1.110       .  S
C756        H773   1.110       .  S
C756        H774   1.111       .  S
C758        H769   1.111       .  S
C758        H770   1.110       .  S
C758        H771   1.110       .  S
C760        C761   1.408       .  A
C760        C765   1.505       .  S
C761        C762   1.408       .  A
C761        H766   1.084       .  S
C762        C763   1.421       .  A
C763        C764   1.401       .  A
C763        C767   1.509       .  S
C764        H768   1.086       .  S
C765        H775   1.111       .  S
C765        H776   1.110       .  S
C765        H777   1.110       .  S
C767        H780   1.111       .  S
C767       H2902   1.109       .  S
C767       H2903   1.111       .  S
H778       C2891   1.107       .  S
H779       C2891   1.110       .  S
C781        C782   1.402       .  A
C781        C786   1.405       .  A
C781        H791   1.084       .  S
C782        C787   1.479       .  S
C782        C783   1.408       .  A
C783        C784   1.401       .  A
C783        C788   1.506       .  S
C784        C785   1.404       .  A
C784        H789   1.080       .  S
C785        C786   1.417       .  A
C786        C790   1.507       .  S
C787        C792   1.407       .  A
C787        C796   1.400       .  A
C788        H804   1.110       .  S
C788        H805   1.110       .  S
C788        H806   1.111       .  S
C790        H801   1.111       .  S
C790        H802   1.111       .  S
C790        H803   1.109       .  S
C792        C793   1.398       .  A
C792        C797   1.509       .  S
C793        C794   1.409       .  A
C793        H798   1.084       .  S
C794        C795   1.423       .  A
C795        C796   1.409       .  A
C795        C799   1.508       .  S
C796        H800   1.085       .  S
C797        H807   1.111       .  S
C797        H808   1.110       .  S
C797        H809   1.110       .  S
C799        H810   1.109       .  S
C799        H811   1.110       .  S
C799        H812   1.111       .  S
C813       C2938   1.404       .  A
C813       C2942   1.414       .  A
C813        H823   1.083       .  S
C814       C2943   1.479       .  S
C814        C815   1.407   1_556  A
C814       C2937   1.402       .  A
C815        C816   1.396       .  A
C815        C820   1.509       .  S
C816        C817   1.410       .  A
C816        H821   1.084       .  S
C817        C818   1.421       .  A
C818       C2937   1.410   1_554  A
C818        C822   1.507   1_554  S
C819       C2938   1.487       .  S
C819        C824   1.410       .  A
C819        C828   1.399       .  A
C820        H836   1.110       .  S
C820        H837   1.109       .  S
C820        H838   1.111       .  S
C822        H835   1.110       .  S
C822       H2957   1.109   1_556  S
C822       H2958   1.111       .  S
C824        C825   1.407       .  A
C824        C829   1.506       .  S
C825        C826   1.409       .  A
C825        H830   1.085       .  S
C826        C827   1.424       .  A
C827        C828   1.407       .  A
C827        C831   1.508       .  S
C828       H2956   1.085       .  S
C829        H839   1.111       .  S
C829        H840   1.110       .  S
C829        H841   1.110       .  S
C831        H842   1.110       .  S
C831        H843   1.110       .  S
C831       H2968   1.111       .  S
H832       C2952   1.084       .  S
H833       C2946   1.110       .  S
H834       C2946   1.111       .  S
H844       C2955   1.111       .  S
C845        C846   1.401       .  A
C845        C850   1.406       .  A
C845        H855   1.085       .  S
C846        C851   1.482       .  S
C846        C847   1.408       .  A
C847        C848   1.402       .  A
C847        C852   1.507       .  S
C848        C849   1.409       .  A
C848        H853   1.084       .  S
C849        C850   1.420       .  A
C850        C854   1.507       .  S
C851        C856   1.408       .  A
C851        C860   1.402       .  A
C852        H868   1.110       .  S
C852        H869   1.110       .  S
C852        H870   1.111       .  S
C854        H865   1.110       .  S
C854        H866   1.111       .  S
C854        H867   1.110       .  S
C856        C857   1.396       .  A
C856        C861   1.509       .  S
C857        C858   1.409       .  A
C857        H862   1.084       .  S
C858        C859   1.422       .  A
C859        C860   1.411       .  A
C859        C863   1.507       .  S
C860        H864   1.085       .  S
C861        H871   1.111       .  S
C861        H872   1.109       .  S
C861        H873   1.110       .  S
C863        H874   1.110       .  S
C863        H875   1.110       .  S
C863        H876   1.111       .  S
C877        C878   1.403       .  A
C877        C882   1.405       .  A
C877        H887   1.084       .  S
C878        C883   1.482       .  S
C878        C879   1.407       .  A
C879        C880   1.403       .  A
C879        C884   1.505       .  S
C880        C881   1.408       .  A
C880        H885   1.084       .  S
C881        C882   1.416       .  A
C882        C886   1.508       .  S
C883        C888   1.408       .  A
C883        C892   1.403       .  A
C884        H900   1.110       .  S
C884        H901   1.110       .  S
C884        H902   1.110       .  S
C886        H897   1.110       .  S
C886        H898   1.110       .  S
C886        H899   1.105       .  S
C888        C889   1.403       .  A
C888        C893   1.506       .  S
C889        C890   1.406       .  A
C889        H894   1.085       .  S
C890        C891   1.415       .  A
C891        C892   1.405       .  A
C891        C895   1.506       .  S
C892        H896   1.085       .  S
C893        H903   1.111       .  S
C893        H904   1.110       .  S
C893        H905   1.110       .  S
C895        H906   1.110       .  S
C895        H907   1.107       .  S
C895        H908   1.110       .  S
C909        C910   1.401       .  A
C909        C914   1.404       .  A
C909        H919   1.084       .  S
C910        C915   1.488       .  S
C910        C911   1.415       .  A
C911        C912   1.408       .  A
C911        C916   1.507       .  S
C912        C913   1.403       .  A
C912        H917   1.084       .  S
C913        C914   1.417       .  A
C914        C918   1.509       .  S
C915        C924   1.400       .  A
C915       C3044   1.415       .  A
C916        H932   1.110       .  S
C916        H933   1.108       .  S
C916        H934   1.111       .  S
C918        H929   1.109       .  S
C918        H930   1.110       .  S
C918        H931   1.109       .  S
C920        C921   1.410       .  A
C920       C3039   1.414       .  A
C920        C925   1.506       .  S
C921        C922   1.404       .  A
C921        H926   1.083       .  S
C922       C3047   1.420       .  A
C923        C924   1.404       .  A
C923       C3046   1.417   1_554  A
C923        C927   1.507       .  S
C924        H928   1.085       .  S
C925        H935   1.111       .  S
C925        H936   1.110       .  S
C925        H937   1.110       .  S
C927        H938   1.110       .  S
C927        H939   1.104       .  S
C927        H940   1.111       .  S
C941        C942   1.402       .  A
C941        C946   1.406       .  A
C941        H951   1.084       .  S
C942        C947   1.482       .  S
C942        C943   1.409       .  A
C943        C944   1.402       .  A
C943        C948   1.506       .  S
C944        C945   1.407       .  A
C944        H949   1.084       .  S
C945        C946   1.417       .  A
C946        C950   1.507       .  S
C947        C952   1.408       .  A
C947        C956   1.401       .  A
C948        H964   1.110       .  S
C948        H965   1.110       .  S
C948        H966   1.111       .  S
C950        H961   1.111       .  S
C950        H962   1.110       .  S
C950        H963   1.111       .  S
C952        C953   1.399       .  A
C952        C957   1.509       .  S
C953        C954   1.410       .  A
C953        H958   1.083       .  S
C954        C955   1.423       .  A
C955        C956   1.411       .  A
C955        C959   1.507       .  S
C956        H960   1.084       .  S
C957        H967   1.111       .  S
C957        H968   1.110       .  S
C957        H969   1.110       .  S
C959        H970   1.110       .  S
C959        H971   1.110       .  S
C959        H972   1.111       .  S
C973        C974   1.398       .  A
C973        C978   1.402       .  A
C973        H983   1.084       .  S
C974        C979   1.485       .  S
C974        C975   1.413       .  A
C975        C976   1.410       .  A
C975        C980   1.505       .  S
C976        C977   1.405       .  A
C976        H981   1.084       .  S
C977        C978   1.418       .  A
C978        C982   1.510       .  S
C979        C984   1.411       .  A
C979        C988   1.402       .  A
C980        H996   1.110       .  S
C980        H997   1.109       .  S
C980        H998   1.111       .  S
C982        H993   1.107       .  S
C982        H994   1.111       .  S
C982        H995   1.110       .  S
C984        C985   1.403       .  A
C984        C989   1.508       .  S
C985        C986   1.407       .  A
C985        H990   1.084       .  S
C986        C987   1.419       .  A
C987        C988   1.409       .  A
C987        C991   1.507       .  S
C988        H992   1.083       .  S
C989        H999   1.111       .  S
C989       H1000   1.110       .  S
C989       H1001   1.109       .  S
C991       H1002   1.109       .  S
C991       H1003   1.111       .  S
C991       H3128   1.111       .  S
H1004      C3115   1.111       .  S
C1005      C1006   1.397       .  A
C1005      C1010   1.400       .  A
C1005      H1015   1.085       .  S
C1006      C1011   1.478       .  S
C1006      C1007   1.409       .  A
C1007      C1008   1.406       .  A
C1007      C1012   1.506       .  S
C1008      C1009   1.408       .  A
C1008      H1013   1.085       .  S
C1009      C1010   1.423       .  A
C1010      C1014   1.510       .  S
C1011      C1016   1.412       .  A
C1011      C1020   1.398       .  A
C1012      H1028   1.110       .  S
C1012      H1029   1.110       .  S
C1012      H1030   1.111       .  S
C1014      H1025   1.110       .  S
C1014      H1026   1.111       .  S
C1014      H1027   1.110       .  S
C1016      C1017   1.406       .  A
C1016      C1021   1.506       .  S
C1017      C1018   1.402       .  A
C1017      H1022   1.084       .  S
C1018      C1019   1.417       .  A
C1019      C1020   1.398       .  A
C1019      C1023   1.510       .  S
C1020      H1024   1.085       .  S
C1021      H1031   1.111       .  S
C1021      H1032   1.110       .  S
C1021      H1033   1.110       .  S
C1023      H1036   1.111       .  S
C1023      H3158   1.110       .  S
C1023      H3159   1.108       .  S
H1034      C3147   1.110   1_554  S
H1035      C3147   1.107   1_554  S
C1037      C1038   1.400       .  A
C1037      C1042   1.404       .  A
C1037      H1047   1.085       .  S
C1038      C1043   1.486       .  S
C1038      C1039   1.411       .  A
C1039      C1040   1.409       .  A
C1039      C1044   1.505       .  S
C1040      C1041   1.406       .  A
C1040      H1045   1.084       .  S
C1041      C1042   1.418       .  A
C1042      C1046   1.509       .  S
C1043      C1048   1.410       .  A
C1043      C1052   1.405       .  A
C1044      H1060   1.110       .  S
C1044      H1061   1.110       .  S
C1044      H1062   1.111       .  S
C1046      H1057   1.111       .  S
C1046      H1058   1.109       .  S
C1046      H1059   1.111       .  S
C1048      C1049   1.401       .  A
C1048      C1053   1.507       .  S
C1049      C1050   1.404       .  A
C1049      H1054   1.084       .  S
C1050      C1051   1.416       .  A
C1051      C1052   1.409       .  A
C1051      C1055   1.507       .  S
C1052      H1056   1.083       .  S
C1053      H1063   1.111       .  S
C1053      H1064   1.110       .  S
C1053      H1065   1.110       .  S
C1055      H1066   1.110       .  S
C1055      H1067   1.106       .  S
C1055      H1068   1.110       .  S
C1069      C1070   1.399       .  A
C1069      C1074   1.403       .  A
C1069      H1079   1.085       .  S
C1070      C1075   1.485       .  S
C1070      C1071   1.415       .  A
C1071      C1072   1.407       .  A
C1071      C1076   1.507       .  S
C1072      C1073   1.402       .  A
C1072      H1077   1.084       .  S
C1073      C1074   1.419       .  A
C1074      C1078   1.508       .  S
C1075      C1080   1.409       .  A
C1075      C3208   1.404       .  A
C1076      H1092   1.110       .  S
C1076      H1093   1.108       .  S
C1076      H1094   1.111       .  S
C1078      H1089   1.110       .  S
C1078      H1090   1.111       .  S
C1078      H1091   1.108       .  S
C1080      C1081   1.403       .  A
C1080      C1085   1.507       .  S
C1081      C3206   1.407       .  A
C1081      H1086   1.084       .  S
C1082      C1083   1.414       .  A
C1082      C3205   1.408   1_554  A
C1083      C1084   1.407       .  A
C1083      C1087   1.505       .  S
C1084      C3199   1.404   1_554  A
C1084      H1088   1.084       .  S
C1085      H1095   1.111       .  S
C1085      H1096   1.110       .  S
C1085      H1097   1.109       .  S
C1087      H1098   1.110       .  S
C1087      H1099   1.106       .  S
C1087      H1100   1.109       .  S
C1101      C3226   1.405       .  A
C1101      C3230   1.413   1_554  A
C1101      H1111   1.085       .  S
C1102      C3231   1.492       .  S
C1102      C1103   1.411       .  A
C1102      C3225   1.405       .  A
C1103      C1104   1.403       .  A
C1103      C1108   1.507       .  S
C1104      C1105   1.407       .  A
C1104      H1109   1.084       .  S
C1105      C1106   1.416       .  A
C1106      C3225   1.412       .  A
C1106      C3234   1.506       .  S
C1107      C3226   1.491       .  S
C1107      C1112   1.409       .  A
C1107      C1116   1.402       .  A
C1108      H1124   1.110       .  S
C1108      H1125   1.110       .  S
C1108      H1126   1.111       .  S
C1110      C3230   1.506   1_554  S
C1110      H1121   1.111       .  S
C1110      H1122   1.110       .  S
C1110      H3247   1.111   1_545  S
C1112      C1113   1.406       .  A
C1112      C1117   1.507       .  S
C1113      C1114   1.411       .  A
C1113      H1118   1.083       .  S
C1114      C1115   1.423       .  A
C1115      C1116   1.410       .  A
C1115      C1119   1.507       .  S
C1116      H1120   1.084       .  S
C1117      H1127   1.111       .  S
C1117      H1128   1.110       .  S
C1117      H3253   1.110       .  S
C1119      H1130   1.111       .  S
C1119      H1131   1.110       .  S
C1119      H1132   1.110       .  S
H1123      C3234   1.111       .  S
H1129      C3241   1.110       .  S
C1133      C1134   1.400       .  A
C1133      C1138   1.407       .  A
C1133      H1143   1.086       .  S
C1134      C1139   1.479       .  S
C1134      C1135   1.410       .  A
C1135      C1136   1.401       .  A
C1135      C1140   1.508       .  S
C1136      C1137   1.406       .  A
C1136      H1141   1.086       .  S
C1137      C1138   1.419       .  A
C1138      C1142   1.508       .  S
C1139      C1144   1.412       .  A
C1139      C1148   1.397       .  A
C1140      H1156   1.110       .  S
C1140      H1157   1.110       .  S
C1140      H1158   1.111       .  S
C1142      H1153   1.111       .  S
C1142      H1154   1.109       .  S
C1142      H1155   1.111       .  S
C1144      C1145   1.407       .  A
C1144      C1149   1.505       .  S
C1145      C1146   1.403       .  A
C1145      H1150   1.085       .  S
C1146      C1147   1.418       .  A
C1147      C1148   1.398       .  A
C1147      C1151   1.511       .  S
C1148      H1152   1.086       .  S
C1149      H1159   1.111       .  S
C1149      H1160   1.110       .  S
C1149      H1161   1.109       .  S
C1151      H1162   1.111       .  S
C1151      H1163   1.110       .  S
C1151      H1164   1.108       .  S
C1165      C1166   1.400       .  A
C1165      C1170   1.407       .  A
C1165      H1175   1.084       .  S
C1166      C1171   1.482       .  S
C1166      C1167   1.409       .  A
C1167      C1168   1.401       .  A
C1167      C1172   1.507       .  S
C1168      C1169   1.408       .  A
C1168      H3297   1.084       .  S
C1169      C1170   1.424       .  A
C1170      C1174   1.509       .  S
C1171      C1176   1.408       .  A
C1171      C1180   1.403       .  A
C1172      H1188   1.110       .  S
C1172      H1189   1.110       .  S
C1172      H1190   1.111       .  S
H1173      C3292   1.084       .  S
C1174      H1185   1.111       .  S
C1174      H1186   1.110   1_554  S
C1174      H1187   1.110       .  S
C1176      C1177   1.398       .  A
C1176      C1181   1.509       .  S
C1177      C1178   1.408       .  A
C1177      H1182   1.084       .  S
C1178      C1179   1.420       .  A
C1179      C1180   1.410       .  A
C1179      C1183   1.507       .  S
C1180      H1184   1.084       .  S
C1181      H1191   1.111       .  S
C1181      H1192   1.110       .  S
C1181      H1193   1.111       .  S
C1183      H1194   1.110       .  S
C1183      H1195   1.104       .  S
C1183      H1196   1.111       .  S
C1197      C1198   1.403       .  A
C1197      C1202   1.409       .  A
C1197      H1207   1.084       .  S
C1198      C1203   1.484       .  S
C1198      C1199   1.410       .  A
C1199      C1200   1.401       .  A
C1199      C1204   1.509       .  S
C1200      C1201   1.408       .  A
C1200      H1205   1.084       .  S
C1201      C1202   1.420       .  A
C1202      C1206   1.508       .  S
C1203      C1208   1.413       .  A
C1203      C1212   1.398       .  A
C1204      H1220   1.110       .  S
C1204      H1221   1.108       .  S
C1204      H1222   1.111       .  S
C1206      H1217   1.111       .  S
C1206      H1218   1.110       .  S
C1206      H1219   1.111       .  S
C1208      C1209   1.411       .  A
C1208      C1213   1.506       .  S
C1209      C1210   1.406       .  A
C1209      H1214   1.083       .  S
C1210      C1211   1.418       .  A
C1211      C1212   1.400       .  A
C1211      C1215   1.509       .  S
C1212      H1216   1.084       .  S
C1213      H1223   1.111       .  S
C1213      H1224   1.110       .  S
C1213      H1225   1.108       .  S
C1215      H1226   1.111       .  S
C1215      H1227   1.110       .  S
C1215      H1228   1.109       .  S
C1229      C1230   1.400       .  A
C1229      C1234   1.407       .  A
C1229      H1239   1.084       .  S
C1230      C1235   1.491       .  S
C1230      C1231   1.414       .  A
C1231      C1232   1.410       .  A
C1231      C1236   1.506       .  S
C1232      C1233   1.404       .  A
C1232      H1237   1.084       .  S
C1233      C1234   1.420       .  A
C1234      C1238   1.507       .  S
C1235      C1240   1.410       .  A
C1235      C1244   1.405       .  A
C1236      H1252   1.110       .  S
C1236      H1253   1.110       .  S
C1236      H1254   1.111       .  S
C1238      H1249   1.111       .  S
C1238      H1250   1.108       .  S
C1238      H1251   1.107       .  S
C1240      C1241   1.406       .  A
C1240      C1245   1.506       .  S
C1241      C1242   1.407       .  A
C1241      H1246   1.085       .  S
C1242      C1243   1.417       .  A
C1243      C1244   1.409       .  A
C1243      C1247   1.508       .  S
C1244      H1248   1.084       .  S
C1245      H1255   1.111       .  S
C1245      H1256   1.110       .  S
C1245      H1257   1.110       .  S
C1247      H1258   1.110       .  S
C1247      H1259   1.106       .  S
C1247      H1260   1.110       .  S
C1261      C1262   1.400       .  A
C1261      C1266   1.402       .  A
C1261      H1271   1.084       .  S
C1262      C1267   1.483   1_565  S
C1262      C1263   1.414       .  A
C1263      C1264   1.406       .  A
C1263      C1268   1.506   1_565  S
C1264      C1265   1.402       .  A
C1264      H1269   1.084       .  S
C1265      C1266   1.415       .  A
C1266      C1270   1.509       .  S
C1267      C1272   1.409       .  A
C1267      C1276   1.403       .  A
C1268      H1284   1.110       .  S
C1268      H1285   1.110       .  S
C1268      H1286   1.111       .  S
C1270      H1281   1.110       .  S
C1270      H1282   1.110       .  S
C1270      H1283   1.109       .  S
C1272      C1273   1.404       .  A
C1272      C1277   1.506       .  S
C1273      C1274   1.405       .  A
C1273      H1278   1.085       .  S
C1274      C1275   1.414       .  A
C1275      C1276   1.405       .  A
C1275      C1279   1.506       .  S
C1276      H1280   1.085   1_545  S
C1277      H1287   1.111       .  S
C1277      H1288   1.110       .  S
C1277      H1289   1.110       .  S
C1279      H1290   1.110       .  S
C1279      H1291   1.108       .  S
C1279      H1292   1.110       .  S
C1293      C1294   1.402       .  A
C1293      C1298   1.409       .  A
C1293      H1303   1.083       .  S
C1294      C1299   1.486       .  S
C1294      C1295   1.410       .  A
C1295      C1296   1.405       .  A
C1295      C1300   1.507       .  S
C1296      C1297   1.407       .  A
C1296      H1301   1.083       .  S
C1297      C1298   1.420       .  A
C1298      C1302   1.507       .  S
C1299      C1304   1.411       .  A
C1299      C1308   1.397       .  A
C1300      H1316   1.110       .  S
C1300      H1317   1.110       .  S
C1300      H1318   1.111       .  S
C1302      H1313   1.110       .  S
C1302      H1314   1.111       .  S
C1302      H1315   1.111       .  S
C1304      C1305   1.410       .  A
C1304      C1309   1.504       .  S
C1305      C1306   1.407       .  A
C1305      H1310   1.084       .  S
C1306      C1307   1.424       .  A
C1307      C1308   1.401       .  A
C1307      C1311   1.511       .  S
C1308      H1312   1.085       .  S
C1309      H1319   1.111       .  S
C1309      H1320   1.110       .  S
C1309      H1321   1.110       .  S
C1311      H1322   1.109       .  S
C1311      H1323   1.111       .  S
C1311      H1324   1.111       .  S
C1325      C1326   1.401       .  A
C1325      C1330   1.404       .  A
C1325      H3459   1.085       .  S
C1326      C3455   1.477       .  S
C1326      C1327   1.408       .  A
C1327      C1328   1.401       .  A
C1327      C1332   1.506       .  S
C1328      C1329   1.407       .  A
C1328      H1333   1.084       .  S
C1329      C1330   1.417       .  A
C1330      C1334   1.507       .  S
C1331      C3450   1.477       .  S
C1331      C1336   1.410       .  A
C1331      C3464   1.404       .  A
C1332      H1348   1.110       .  S
C1332      H1349   1.110       .  S
C1332      H1350   1.111       .  S
C1334      H1345   1.111       .  S
C1334      H1346   1.110       .  S
C1334      H1347   1.111       .  S
H1335      C3449   1.084       .  S
C1336      C1337   1.398       .  A
C1336      C1341   1.507       .  S
C1337      C1338   1.401       .  A
C1337      H1342   1.086       .  S
C1338      C1339   1.411       .  A
C1339      C3464   1.405       .  A
C1339      C3467   1.506       .  S
C1340      C3455   1.401       .  A
C1340      C3463   1.409   1_554  A
C1340      H1344   1.084       .  S
C1341      H1351   1.111       .  S
C1341      H1352   1.110       .  S
C1341      H1353   1.110       .  S
C1343      C3463   1.507   1_554  S
C1343      H1354   1.111       .  S
C1343      H1356   1.110       .  S
C1343      H3479   1.110   1_554  S
H1355      C3467   1.110       .  S
C1357      C1358   1.398   1_554  A
C1357      C1362   1.400       .  A
C1357      H1367   1.084       .  S
C1358      C3487   1.481       .  S
C1358      C1359   1.412       .  A
C1359      C1360   1.408   1_556  A
C1359      C1364   1.505       .  S
C1360      C1361   1.404       .  A
C1360      H1365   1.083   1_554  S
C1361      C1362   1.419       .  A
C1362      C1366   1.508       .  S
C1363      C3482   1.485       .  S
C1363      C1372   1.403       .  A
C1363      C3492   1.411       .  A
C1364      H1381   1.110       .  S
C1364      H1382   1.110       .  S
C1364      H3504   1.110       .  S
C1366      H1377   1.109       .  S
C1366      H1378   1.111       .  S
C1366      H1379   1.110       .  S
C1368      C3487   1.410       .  A
C1368      C3493   1.399       .  A
C1368      C1373   1.508       .  S
C1369      C1370   1.405       .  A
C1369      C3492   1.401       .  A
C1369      H1374   1.084       .  S
C1370      C1371   1.419       .  A
C1371      C1372   1.410       .  A
C1371      C1375   1.507       .  S
C1372      H1376   1.083       .  S
C1373      H1383   1.111       .  S
C1373      H1384   1.110   1_556  S
C1373      H1385   1.110       .  S
C1375      H1386   1.110       .  S
C1375      H1387   1.111       .  S
C1375      H1388   1.111       .  S
H1380      C3488   1.111       .  S
C1389      C1390   1.403       .  A
C1389      C1394   1.408       .  A
C1389      H1399   1.083       .  S
C1390      C1395   1.486       .  S
C1390      C1391   1.410       .  A
C1391      C1392   1.402       .  A
C1391      C1396   1.508       .  S
C1392      C1393   1.408       .  A
C1392      H1397   1.084       .  S
C1393      C1394   1.419       .  A
C1394      C1398   1.507       .  S
C1395      C1400   1.411       .  A
C1395      C1404   1.405       .  A
C1396      H1412   1.109       .  S
C1396      H1413   1.111       .  S
C1396      H1414   1.111       .  S
C1398      H1409   1.110       .  S
C1398      H1410   1.111       .  S
C1398      H1411   1.107       .  S
C1400      C1401   1.401       .  A
C1400      C1405   1.508       .  S
C1401      C1402   1.404       .  A
C1401      H1406   1.085       .  S
C1402      C1403   1.415       .  A
C1403      C1404   1.408       .  A
C1403      C1407   1.507       .  S
C1404      H1408   1.085       .  S
C1405      H1415   1.111       .  S
C1405      H1416   1.109       .  S
C1405      H1417   1.110       .  S
C1407      H1418   1.110       .  S
C1407      H1419   1.107   1_565  S
C1407      H1420   1.111       .  S
C1421      C1422   1.405   1_556  A
C1421      C3550   1.408       .  A
C1421      H1431   1.084       .  S
C1422      C1427   1.491       .  S
C1422      C1423   1.411       .  A
C1423      C1424   1.406       .  A
C1423      C1428   1.506       .  S
C1424      C3549   1.406   1_554  A
C1424      H1429   1.084       .  S
C1425      C1426   1.416       .  A
C1425      C3548   1.405       .  A
C1426      C3545   1.408       .  A
C1426      C1430   1.508       .  S
C1427      C1432   1.409       .  A
C1427      C1436   1.406       .  A
C1428      H1444   1.110       .  S
C1428      H1445   1.109       .  S
C1428      H1446   1.111       .  S
C1430      H1441   1.110       .  S
C1430      H1443   1.107       .  S
C1430      H3566   1.110       .  S
C1432      C1433   1.405       .  A
C1432      C1437   1.507       .  S
C1433      C1434   1.409       .  A
C1433      H1438   1.084       .  S
C1434      C1435   1.417       .  A
C1435      C1436   1.410       .  A
C1435      C1439   1.507       .  S
C1436      H1440   1.084       .  S
C1437      H3571   1.111       .  S
C1437      H3572   1.110   1_554  S
C1437      H3573   1.109       .  S
C1439      H1450   1.111       .  S
C1439      H1451   1.106       .  S
C1439      H1452   1.110       .  S
H1442      C3554   1.111       .  S
H1447      C3561   1.111       .  S
H1448      C3561   1.110       .  S
H1449      C3561   1.110       .  S
C1453      C1454   1.398       .  A
C1453      C1458   1.399       .  A
C1453      H1463   1.085       .  S
C1454      C1459   1.486       .  S
C1454      C1455   1.412       .  A
C1455      C1456   1.410       .  A
C1455      C1460   1.504       .  S
C1456      C1457   1.407       .  A
C1456      H1461   1.084       .  S
C1457      C1458   1.421       .  A
C1458      C1462   1.511       .  S
C1459      C1464   1.410       .  A
C1459      C1468   1.404       .  A
C1460      H1476   1.110       .  S
C1460      H1477   1.111       .  S
C1460      H1478   1.111       .  S
C1462      H1473   1.111       .  S
C1462      H1474   1.109       .  S
C1462      H1475   1.110       .  S
C1464      C1465   1.402       .  A
C1464      C1469   1.507       .  S
C1465      C1466   1.405       .  A
C1465      H1470   1.082       .  S
C1466      C1467   1.416       .  A
C1467      C1468   1.408       .  A
C1467      C1471   1.507       .  S
C1468      H1472   1.085       .  S
C1469      H1479   1.111       .  S
C1469      H1480   1.109       .  S
C1469      H1481   1.110       .  S
C1471      H1482   1.111       .  S
C1471      H1483   1.111       .  S
C1471      H1484   1.109       .  S
C1485      C1486   1.397       .  A
C1485      C1490   1.400       .  A
C1485      H1495   1.084       .  S
C1486      C1491   1.474       .  S
C1486      C1487   1.408       .  A
C1487      C1488   1.403       .  A
C1487      C1492   1.506       .  S
C1488      C1489   1.407       .  A
C1488      H1493   1.083       .  S
C1489      C1490   1.421       .  A
C1490      C1494   1.509       .  S
C1491      C1496   1.409       .  A
C1491      C1500   1.397       .  A
C1492      H1508   1.110       .  S
C1492      H1509   1.111       .  S
C1492      H1510   1.111       .  S
C1494      H1505   1.110       .  S
C1494      H1506   1.111       .  S
C1494      H1507   1.111       .  S
C1496      C1497   1.405       .  A
C1496      C1501   1.505       .  S
C1497      C1498   1.406       .  A
C1497      H1502   1.084       .  S
C1498      C1499   1.418       .  A
C1499      C1500   1.396       .  A
C1499      C1503   1.507       .  S
C1500      H1504   1.085       .  S
C1501      H1511   1.111       .  S
C1501      H1512   1.110       .  S
C1501      H1513   1.110       .  S
C1503      H1514   1.106       .  S
C1503      H1515   1.108       .  S
C1503      H1516   1.111       .  S
C1517      C1518   1.400       .  A
C1517      C1522   1.404       .  A
C1517      H1527   1.085       .  S
C1518      C1523   1.487       .  S
C1518      C1519   1.415       .  A
C1519      C1520   1.407       .  A
C1519      C1524   1.506       .  S
C1520      C1521   1.402       .  A
C1520      H1525   1.085       .  S
C1521      C1522   1.416       .  A
C1522      C1526   1.507       .  S
C1523      C1528   1.414       .  A
C1523      C1532   1.401       .  A
C1524      H1540   1.110       .  S
C1524      H1541   1.109       .  S
C1524      H1542   1.111       .  S
C1526      H1537   1.109       .  S
C1526      H1538   1.110       .  S
C1526      H1539   1.109       .  S
C1528      C1529   1.408       .  A
C1528      C1533   1.507       .  S
C1529      C1530   1.403       .  A
C1529      H1534   1.085       .  S
C1530      C1531   1.417       .  A
C1531      C1532   1.406       .  A
C1531      C1535   1.508       .  S
C1532      H1536   1.084       .  S
C1533      H1543   1.111       .  S
C1533      H1544   1.110       .  S
C1533      H1545   1.109       .  S
C1535      H1546   1.110       .  S
C1535      H1547   1.106       .  S
C1535      H1548   1.111       .  S
C1549      C1550   1.402       .  A
C1549      C1554   1.411       .  A
C1549      H1559   1.084       .  S
C1550      C1555   1.483       .  S
C1550      C1551   1.408       .  A
C1551      C1552   1.398       .  A
C1551      C1556   1.510       .  S
C1552      C1553   1.411       .  A
C1552      H1557   1.083       .  S
C1553      C1554   1.423       .  A
C1554      C1558   1.507       .  S
C1555      C1560   1.411       .  A
C1555      C1564   1.398       .  A
C1556      H1572   1.110       .  S
C1556      H1573   1.109       .  S
C1556      H1574   1.111       .  S
C1558      H1569   1.108       .  S
C1558      H1570   1.111       .  S
C1558      H1571   1.111       .  S
C1560      C1561   1.406       .  A
C1560      C1565   1.507       .  S
C1561      C1562   1.407       .  A
C1561      H1566   1.083       .  S
C1562      C1563   1.424       .  A
C1563      C1564   1.404       .  A
C1563      C1567   1.509       .  S
C1564      H1568   1.084       .  S
C1565      H1575   1.111       .  S
C1565      H1576   1.110       .  S
C1565      H1577   1.109       .  S
C1567      H1578   1.110       .  S
C1567      H1579   1.109       .  S
C1567      H1580   1.111       .  S
C1581      C1582   1.404       .  A
C1581      C1586   1.408       .  A
C1581      H1591   1.084       .  S
C1582      C1587   1.485       .  S
C1582      C1583   1.410       .  A
C1583      C1584   1.399       .  A
C1583      C1588   1.508       .  S
C1584      C1585   1.405       .  A
C1584      H1589   1.084       .  S
C1585      C1586   1.417       .  A
C1586      C1590   1.507       .  S
C1587      C1592   1.409       .  A
C1587      C1596   1.401       .  A
C1588      H1604   1.110       .  S
C1588      H1605   1.110       .  S
C1588      H1606   1.111       .  S
C1590      H1601   1.111       .  S
C1590      H1602   1.110       .  S
C1590      H1603   1.106       .  S
C1592      C1593   1.402       .  A
C1592      C1597   1.508       .  S
C1593      C1594   1.409       .  A
C1593      H1598   1.084       .  S
C1594      C1595   1.422       .  A
C1595      C1596   1.408       .  A
C1595      C1599   1.508       .  S
C1596      H1600   1.084       .  S
C1597      H1607   1.111       .  S
C1597      H1608   1.110       .  S
C1597      H1609   1.110       .  S
C1599      H1610   1.111       .  S
C1599      H1611   1.110       .  S
C1599      H1612   1.110       .  S
C1613      C1614   1.393       .  A
C1613      C1618   1.398       .  A
C1613      H1623   1.085       .  S
C1614      C1619   1.483   1_455  S
C1614      C1615   1.413       .  A
C1615      C1616   1.413       .  A
C1615      C1620   1.504   1_455  S
C1616      C1617   1.407       .  A
C1616      H1621   1.084       .  S
C1617      C1618   1.428       .  A
C1618      C1622   1.512       .  S
C1619      C1624   1.409       .  A
C1619      C1628   1.406       .  A
C1620      H1636   1.110       .  S
C1620      H1637   1.110       .  S
C1620      H1638   1.111   1_655  S
C1622      H1633   1.111       .  S
C1622      H1634   1.109       .  S
C1622      H1635   1.110       .  S
C1624      C1625   1.397       .  A
C1624      C1629   1.509       .  S
C1625      C1626   1.405       .  A
C1625      H1630   1.084       .  S
C1626      C1627   1.417       .  A
C1627      C1628   1.411       .  A
C1627      C1631   1.506       .  S
C1628      H1632   1.083       .  S
C1629      H1639   1.111       .  S
C1629      H1640   1.110   1_655  S
C1629      H1641   1.110       .  S
C1631      H1642   1.110       .  S
C1631      H1643   1.106       .  S
C1631      H1644   1.110       .  S
C1645      C1646   1.396       .  A
C1645      C1650   1.401       .  A
C1645      H1655   1.085       .  S
C1646      C1651   1.482       .  S
C1646      C1647   1.410       .  A
C1647      C1648   1.408       .  A
C1647      C1652   1.506       .  S
C1648      C1649   1.408       .  A
C1648      H1653   1.084       .  S
C1649      C1650   1.427       .  A
C1650      C3778   1.511       .  S
C1651      C1656   1.411       .  A
C1651      C1660   1.399       .  A
C1652      H1668   1.109       .  S
C1652      H1669   1.111       .  S
C1652      H1670   1.110       .  S
C1654      C3774   1.509       .  S
C1654      H1665   1.111       .  S
C1654      H1666   1.111       .  S
C1654      H1667   1.109   1_556  S
C1656      C1657   1.404       .  A
C1656      C1661   1.507       .  S
C1657      C1658   1.408       .  A
C1657      H1662   1.084       .  S
C1658      C1659   1.422       .  A
C1659      C1660   1.403       .  A
C1659      C1663   1.509       .  S
C1660      H1664   1.084       .  S
C1661      H1671   1.111       .  S
C1661      H1672   1.109       .  S
C1661      H1673   1.110       .  S
C1663      H1674   1.110       .  S
C1663      H1675   1.111       .  S
C1663      H1676   1.111       .  S
C1677      C1678   1.406       .  A
C1677      C1682   1.412       .  A
C1677      H1687   1.084       .  S
C1678      C1683   1.489       .  S
C1678      C1679   1.410       .  A
C1679      C1680   1.402       .  A
C1679      C1684   1.507       .  S
C1680      C1681   1.405       .  A
C1680      H1685   1.084       .  S
C1681      C1682   1.417       .  A
C1682      C1686   1.507       .  S
C1683      C1688   1.411       .  A
C1683      C1692   1.399       .  A
C1684      H1700   1.110       .  S
C1684      H1701   1.109       .  S
C1684      H1702   1.111       .  S
C1686      H1697   1.110       .  S
C1686      H1698   1.110       .  S
C1686      H1699   1.107       .  S
C1688      C1689   1.410       .  A
C1688      C1693   1.505       .  S
C1689      C1690   1.407       .  A
C1689      H1694   1.085       .  S
C1690      C1691   1.422       .  A
C1691      C1692   1.405       .  A
C1691      C1695   1.508       .  S
C1692      H1696   1.086       .  S
C1693      H1703   1.111       .  S
C1693      H1704   1.110       .  S
C1693      H1705   1.109       .  S
C1695      H1706   1.109       .  S
C1695      H1707   1.111       .  S
C1695      H1708   1.111       .  S
C1709      C1710   1.399       .  A
C1709      C1714   1.403       .  A
C1709      H1719   1.084       .  S
C1710      C1715   1.479       .  S
C1710      C1711   1.412       .  A
C1711      C1712   1.403       .  A
C1711      C1716   1.507       .  S
C1712      C1713   1.403       .  A
C1712      H1717   1.084       .  S
C1713      C1714   1.419       .  A
C1714      C1718   1.507       .  S
C1715      C1720   1.410       .  A
C1715      C1724   1.397       .  A
C1716      H1732   1.110       .  S
C1716      H1733   1.109       .  S
C1716      H1734   1.111       .  S
C1718      H1729   1.111       .  S
C1718      H1730   1.110       .  S
C1718      H1731   1.104       .  S
C1720      C1721   1.408       .  A
C1720      C1725   1.505       .  S
C1721      C1722   1.407       .  A
C1721      H1726   1.084       .  S
C1722      C1723   1.420       .  A
C1723      C1724   1.399       .  A
C1723      C1727   1.510       .  S
C1724      H1728   1.085       .  S
C1725      H1735   1.111       .  S
C1725      H1736   1.110       .  S
C1725      H1737   1.109       .  S
C1727      H1738   1.111       .  S
C1727      H1739   1.109       .  S
C1727      H1740   1.109       .  S
C1741      C1742   1.403       .  A
C1741      C1746   1.408       .  A
C1741      H1751   1.084       .  S
C1742      C1747   1.485       .  S
C1742      C1743   1.412       .  A
C1743      C1744   1.403       .  A
C1743      C1748   1.509       .  S
C1744      C1745   1.404       .  A
C1744      H1749   1.084       .  S
C1745      C1746   1.416       .  A
C1746      C3874   1.507       .  S
C1747      C1752   1.414       .  A
C1747      C1756   1.400       .  A
C1748      H1764   1.111       .  S
C1748      H1765   1.109       .  S
C1748      H1766   1.111       .  S
C1750      C3870   1.507   1_554  S
C1750      H1761   1.111       .  S
C1750      H1762   1.110       .  S
C1750      H1763   1.107       .  S
C1752      C1753   1.408       .  A
C1752      C1757   1.506       .  S
C1753      C1754   1.401       .  A
C1753      H1758   1.084       .  S
C1754      C1755   1.415       .  A
C1755      C1756   1.402       .  A
C1755      C1759   1.508       .  S
C1756      H1760   1.085       .  S
C1757      H1767   1.111       .  S
C1757      H1768   1.110       .  S
C1757      H1769   1.109       .  S
C1759      H1770   1.111       .  S
C1759      H1771   1.108       .  S
C1759      H1772   1.110       .  S
C1773      C1774   1.403       .  A
C1773      C1778   1.402       .  A
C1773      H1783   1.084       .  S
C1774      C1779   1.486       .  S
C1774      C1775   1.412       .  A
C1775      C1776   1.408       .  A
C1775      C1780   1.505       .  S
C1776      C1777   1.404       .  A
C1776      H1781   1.084       .  S
C1777      C1778   1.413       .  A
C1778      C1782   1.508       .  S
C1779      C1784   1.415       .  A
C1779      C1788   1.400       .  A
C1780      H3920   1.110       .  S
C1780      H3921   1.111       .  S
C1780      H3922   1.111       .  S
C1782      H1793   1.110       .  S
C1782      H1794   1.110       .  S
C1782      H1795   1.109       .  S
C1784      C3909   1.407       .  A
C1784      C1789   1.507       .  S
C1785      C1786   1.403       .  A
C1785      C3908   1.407   1_554  A
C1785      H1790   1.084       .  S
C1786      C3911   1.417   1_554  A
C1787      C1788   1.403       .  A
C1787      C3910   1.418       .  A
C1787      C3915   1.509       .  S
C1788      H1792   1.083       .  S
C1789      H1799   1.111       .  S
C1789      H1800   1.110       .  S
C1789      H1801   1.110       .  S
C1791      C3911   1.506       .  S
C1791      H1803   1.109       .  S
C1791      H1804   1.110       .  S
C1791      H3926   1.109       .  S
H1796      C3904   1.110       .  S
H1797      C3904   1.110       .  S
H1798      C3904   1.111       .  S
H1802      C3915   1.110       .  S
C1805      C1806   1.401       .  A
C1805      C1810   1.407       .  A
C1805      H1815   1.085       .  S
C1806      C1811   1.488       .  S
C1806      C1807   1.410       .  A
C1807      C1808   1.407       .  A
C1807      C1812   1.506       .  S
C1808      C1809   1.408       .  A
C1808      H1813   1.085       .  S
C1809      C1810   1.420       .  A
C1810      C1814   1.507       .  S
C1811      C1816   1.409       .  A
C1811      C1820   1.404       .  A
C1812      H1828   1.110       .  S
C1812      H1829   1.110       .  S
C1812      H1830   1.111       .  S
C1814      H1825   1.111       .  S
C1814      H1826   1.111       .  S
C1814      H1827   1.110       .  S
C1816      C1817   1.401       .  A
C1816      C1821   1.508       .  S
C1817      C1818   1.407       .  A
C1817      H1822   1.083       .  S
C1818      C1819   1.420       .  A
C1819      C1820   1.412       .  A
C1819      C1823   1.506       .  S
C1820      H1824   1.084       .  S
C1821      H1831   1.111       .  S
C1821      H1832   1.110       .  S
C1821      H1833   1.110       .  S
C1823      H1834   1.109       .  S
C1823      H1835   1.111       .  S
C1823      H1836   1.111       .  S
C1837      C1838   1.397       .  A
C1837      C1842   1.404       .  A
C1837      H3971   1.085       .  S
C1838      C3967   1.480       .  S
C1838      C1839   1.408       .  A
C1839      C1840   1.405       .  A
C1839      C1844   1.507       .  S
C1840      C1841   1.409       .  A
C1840      H1845   1.083       .  S
C1841      C1842   1.425       .  A
C1842      C1846   1.508       .  S
C1843      C3962   1.478       .  S
C1843      C1848   1.407   1_556  A
C1843      C3976   1.401       .  A
C1844      H1860   1.110       .  S
C1844      H1861   1.110       .  S
C1844      H1862   1.111       .  S
C1846      H1858   1.109       .  S
C1846      H1859   1.110       .  S
C1846      H3981   1.111       .  S
H1847      C3961   1.085       .  S
C1848      C1849   1.396       .  A
C1848      C1853   1.509       .  S
C1849      C1850   1.410       .  A
C1849      H1854   1.084       .  S
C1850      C1851   1.422       .  A
C1851      C3976   1.409   1_554  A
C1851      C1855   1.508   1_554  S
C1852      C3967   1.401       .  A
C1852      C3975   1.410       .  A
C1852      H1856   1.085       .  S
C1853      H1863   1.111       .  S
C1853      H1864   1.110       .  S
C1853      H1865   1.109       .  S
C1855      H1866   1.111       .  S
C1855      H1867   1.110       .  S
C1855      H3992   1.109   1_556  S
H1857      C3970   1.111       .  S
H1868      C3979   1.109       .  S
C1869      C3994   1.397       .  A
C1869      C3998   1.404   1_554  A
C1869      H1879   1.084       .  S
C1870      C3999   1.480       .  S
C1870      C1871   1.410       .  A
C1870      C3993   1.399       .  A
C1871      C1872   1.400       .  A
C1871      C1876   1.510       .  S
C1872      C1873   1.409       .  A
C1872      H1877   1.084       .  S
C1873      C1874   1.425       .  A
C1874      C3993   1.407       .  A
C1874      C4002   1.508       .  S
C1875      C3994   1.475       .  S
C1875      C1880   1.407       .  A
C1875      C1884   1.399       .  A
C1876      H1892   1.110       .  S
C1876      H1893   1.108       .  S
C1876      H1894   1.111       .  S
C1878      C3998   1.509   1_554  S
C1878      H1889   1.111       .  S
C1878      H1890   1.110   1_554  S
C1878      H4015   1.110       .  S
C1880      C1881   1.401       .  A
C1880      C1885   1.507       .  S
C1881      C1882   1.406       .  A
C1881      H1886   1.084       .  S
C1882      C1883   1.419       .  A
C1883      C1884   1.402       .  A
C1883      C1887   1.508       .  S
C1884      H1888   1.084       .  S
C1885      H1895   1.111       .  S
C1885      H1896   1.110       .  S
C1885      H4021   1.109       .  S
C1887      H1898   1.111       .  S
C1887      H1899   1.110       .  S
C1887      H1900   1.110       .  S
H1891      C4002   1.110       .  S
H1897      C4009   1.108       .  S
C1901      C1902   1.401       .  A
C1901      C1906   1.406       .  A
C1901      H1911   1.084       .  S
C1902      C1907   1.488       .  S
C1902      C1903   1.411       .  A
C1903      C1904   1.405       .  A
C1903      C1908   1.507       .  S
C1904      C1905   1.409       .  A
C1904      H1909   1.084       .  S
C1905      C1906   1.424       .  A
C1906      C1910   1.509       .  S
C1907      C1912   1.414       .  A
C1907      C1916   1.401       .  A
C1908      H1924   1.109       .  S
C1908      H1925   1.110       .  S
C1908      H1926   1.111       .  S
C1910      H1921   1.111       .  S
C1910      H1922   1.110       .  S
C1910      H1923   1.111       .  S
C1912      C1913   1.409       .  A
C1912      C1917   1.505       .  S
C1913      C1914   1.405       .  A
C1913      H1918   1.084       .  S
C1914      C1915   1.416       .  A
C1915      C1916   1.401       .  A
C1915      C1919   1.509       .  S
C1916      H1920   1.084       .  S
C1917      H1927   1.110       .  S
C1917      H1928   1.109       .  S
C1917      H1929   1.110       .  S
C1919      H1930   1.108       .  S
C1919      H1931   1.111       .  S
C1919      H1932   1.111       .  S
C1933      C1934   1.406       .  A
C1933      C1938   1.412       .  A
C1933      H1943   1.084       .  S
C1934      C1939   1.497   1_455  S
C1934      C1935   1.413       .  A
C1935      C1936   1.409       .  A
C1935      C1940   1.506       .  S
C1936      C1937   1.406       .  A
C1936      H1941   1.084       .  S
C1937      C1938   1.413       .  A
C1938      C1942   1.506       .  S
C1939      C1944   1.413       .  A
C1939      C1948   1.404       .  A
C1940      H1956   1.110       .  S
C1940      H1957   1.110       .  S
C1940      H1958   1.111       .  S
C1942      H1953   1.111       .  S
C1942      H1954   1.111       .  S
C1942      H1955   1.110       .  S
C1944      C1945   1.412       .  A
C1944      C1949   1.505   1_655  S
C1945      C1946   1.407       .  A
C1945      H1950   1.084       .  S
C1946      C1947   1.417       .  A
C1947      C1948   1.408       .  A
C1947      C1951   1.508       .  S
C1948      H1952   1.084       .  S
C1949      H1959   1.111   1_455  S
C1949      H1960   1.110       .  S
C1949      H1961   1.110       .  S
C1951      H1962   1.110       .  S
C1951      H1963   1.108       .  S
C1951      H1964   1.110       .  S
C1965      C1966   1.398       .  A
C1965      C1970   1.400       .  A
C1965      H1975   1.084       .  S
C1966      C1971   1.482       .  S
C1966      C1967   1.414       .  A
C1967      C1968   1.408       .  A
C1967      C1972   1.506       .  S
C1968      C1969   1.403       .  A
C1968      H1973   1.084       .  S
C1969      C1970   1.418       .  A
C1970      C1974   1.508       .  S
C1971      C1976   1.412       .  A
C1971      C1980   1.403       .  A
C1972      H1988   1.110       .  S
C1972      H1989   1.109       .  S
C1972      H1990   1.111       .  S
C1974      H1985   1.110       .  S
C1974      H1986   1.110       .  S
C1974      H1987   1.108       .  S
C1976      C1977   1.401       .  A
C1976      C1981   1.508       .  S
C1977      C1978   1.403       .  A
C1977      H1982   1.084       .  S
C1978      C1979   1.414       .  A
C1979      C1980   1.408       .  A
C1979      C1983   1.506       .  S
C1980      H1984   1.083       .  S
C1981      H1991   1.111       .  S
C1981      H1992   1.110       .  S
C1981      H1993   1.109       .  S
C1983      H1994   1.111       .  S
C1983      H1995   1.110       .  S
C1983      H1996   1.110       .  S
C1997      C1998   1.404       .  A
C1997      C2002   1.409       .  A
C1997      H2007   1.084       .  S
C1998      C2003   1.489       .  S
C1998      C1999   1.411       .  A
C1999      C2000   1.404       .  A
C1999      C2004   1.507       .  S
C2000      C2001   1.406       .  A
C2000      H2005   1.085       .  S
C2001      C2002   1.417       .  A
C2002      C2006   1.507       .  S
C2003      C2008   1.411       .  A
C2003      C2012   1.401       .  A
C2004      H2020   1.109       .  S
C2004      H2021   1.110       .  S
C2004      H2022   1.111       .  S
C2006      H2017   1.111       .  S
C2006      H2018   1.111       .  S
C2006      H2019   1.110       .  S
C2008      C2009   1.408       .  A
C2008      C2013   1.506       .  S
C2009      C2010   1.409       .  A
C2009      H2014   1.084       .  S
C2010      C2011   1.421       .  A
C2011      C2012   1.406       .  A
C2011      C2015   1.508       .  S
C2012      H2016   1.085       .  S
C2013      H2023   1.111       .  S
C2013      H2024   1.110       .  S
C2013      H2025   1.111       .  S
C2015      H2026   1.111       .  S
C2015      H2027   1.111       .  S
C2015      H2028   1.110       .  S
C2029      C2030   1.405       .  A
C2029      C2034   1.411       .  A
C2029      H2039   1.084       .  S
C2030      C2035   1.490       .  S
C2030      C2031   1.408       .  A
C2031      C2032   1.401       .  A
C2031      C2036   1.507       .  S
C2032      C2033   1.409       .  A
C2032      H4161   1.084   1_554  S
C2033      C2034   1.420       .  A
C2034      C2038   1.508       .  S
C2035      C2040   1.412       .  A
C2035      C2044   1.403       .  A
C2036      H2052   1.109       .  S
C2036      H2053   1.110       .  S
C2036      H2054   1.111   1_554  S
H2037      C4156   1.085       .  S
C2038      H2049   1.110       .  S
C2038      H2050   1.110       .  S
C2038      H2051   1.105       .  S
C2040      C2041   1.408       .  A
C2040      C2045   1.506       .  S
C2041      C2042   1.406       .  A
C2041      H2046   1.085       .  S
C2042      C2043   1.416       .  A
C2043      C2044   1.404       .  A
C2043      C2047   1.507       .  S
C2044      H2048   1.085       .  S
C2045      H2055   1.111       .  S
C2045      H2056   1.110       .  S
C2045      H2057   1.111       .  S
C2047      H2058   1.110       .  S
C2047      H2059   1.108       .  S
C2047      H2060   1.111       .  S
C2061      C2062   1.403       .  A
C2061      C2066   1.400       .  A
C2061      H2071   1.085       .  S
C2062      C2067   1.475       .  S
C2062      C2063   1.411       .  A
C2063      C2064   1.401       .  A
C2063      C2068   1.506       .  S
C2064      C2065   1.400       .  A
C2064      H2069   1.084       .  S
C2065      C2066   1.408       .  A
C2066      C2070   1.508       .  S
C2067      C2072   1.408       .  A
C2067      C2076   1.399       .  A
C2068      H2084   1.109       .  S
C2068      H2085   1.110       .  S
C2068      H2086   1.111       .  S
C2070      H2081   1.111       .  S
C2070      H2082   1.111       .  S
C2070      H2083   1.110       .  S
C2072      C2073   1.402       .  A
C2072      C2077   1.506       .  S
C2073      C2074   1.408       .  A
C2073      H4202   1.084       .  S
C2074      C2075   1.419       .  A
C2075      C2076   1.401       .  A
C2075      C2079   1.509   1_554  S
C2076      H2080   1.084       .  S
C2077      H2087   1.111       .  S
C2077      H2088   1.109       .  S
C2077      H2089   1.110       .  S
H2078      C4197   1.083       .  S
C2079      H2090   1.111   1_556  S
C2079      H2091   1.109   1_556  S
C2079      H2092   1.110       .  S
C2093      C2094   1.406       .  A
C2093      C2098   1.413       .  A
C2093      H2103   1.085       .  S
C2094      C2099   1.486       .  S
C2094      C2095   1.406       .  A
C2095      C2096   1.398       .  A
C2095      C2100   1.509       .  S
C2096      C2097   1.411       .  A
C2096      H2101   1.083       .  S
C2097      C2098   1.419       .  A
C2098      C2102   1.506       .  S
C2099      C2104   1.411       .  A
C2099      C2108   1.403       .  A
C2100      H2116   1.110       .  S
C2100      H2117   1.110       .  S
C2100      H2118   1.111       .  S
C2102      H2113   1.111       .  S
C2102      H2114   1.110       .  S
C2102      H2115   1.110       .  S
C2104      C2105   1.405       .  A
C2104      C2109   1.506       .  S
C2105      C2106   1.404       .  A
C2105      H2110   1.084       .  S
C2106      C2107   1.415       .  A
C2107      C2108   1.406       .  A
C2107      C2111   1.508       .  S
C2108      H2112   1.084       .  S
C2109      H2119   1.111       .  S
C2109      H2120   1.110       .  S
C2109      H2121   1.110       .  S
C2111      H2122   1.109       .  S
C2111      H2123   1.110       .  S
C2111      H2124   1.111       .  S
O2125      C2140   1.254       .  A
O2125     Al2133   1.872       .  S
C2126      O2136   1.270       .  A
C2126      O2127   1.278       .  A
C2126      C4125   1.485       .  S
O2127     Al2129   1.953       .  S
O2128      C2130   1.252       .  A
O2128     Al2129   1.866       .  S
Al2129     O2137   1.912       .  S
Al2129     O2139   1.955       .  S
Al2129     O2138   1.789       .  S
C2130      O2143   1.264       .  A
C2130      C4093   1.481       .  S
O2131      C2141   1.256       .  A
O2131     Al2133   1.910       .  S
O2132      C2145   1.269       .  A
O2132     Al2142   1.888       .  S
Al2133     O2146   1.938       .  S
Al2133     O2143   1.934       .  S
Al2133     O2138   1.791       .  S
O2134      C2141   1.251       .  A
O2134     Al2142   1.898       .  S
O2135      C2144   1.250       .  A
O2135     Al2142   1.895       .  S
O2136     Al2142   1.887       .  S
O2137      C2144   1.256       .  A
O2138     Al2142   1.784       .  S
O2139      C2140   1.269       .  A
C2140      C4061   1.491       .  S
C2141      C4230   1.480       .  S
C2144      C4166   1.483       .  S
C2145      O2146   1.274       .  A
C2145      C4189   1.466       .  S
O2147      C2162   1.257       .  A
O2147     Al2155   1.885   1_655  S
C2148      O2158   1.264       .  A
C2148      O2149   1.267       .  A
C2148      C3942   1.496       .  S
O2149     Al2151   1.916   1_455  S
O2150      C2152   1.254       .  A
O2150     Al2151   1.882   1_455  S
Al2151     O2159   1.901       .  S
Al2151     O2161   1.907       .  S
Al2151     O2160   1.788       .  S
C2152      O2165   1.262       .  A
C2152      C3965   1.491       .  S
O2153      C2163   1.263       .  A
O2153     Al2155   1.915       .  S
O2154      C2167   1.268       .  A
O2154     Al2164   1.924       .  S
Al2155     O2168   1.905   1_455  S
Al2155     O2165   1.916       .  S
Al2155     O2160   1.792   1_455  S
O2156      C2163   1.259       .  A
O2156     Al2164   1.899   1_455  S
O2157      C2166   1.258       .  A
O2157     Al2164   1.916       .  S
O2158     Al2164   1.908   1_455  S
O2159      C2166   1.257       .  A
O2160     Al2164   1.785       .  S
O2161      C2162   1.263       .  A
C2162      C3997   1.491       .  S
C2163      C4102   1.479       .  S
C2166      C4029   1.502       .  S
C2167      O2168   1.262       .  A
C2167      C3901   1.473       .  S
O2169      C2184   1.277       .  A
O2169     Al2177   1.958       .  S
C2170      O2180   1.272       .  A
C2170      C3773   1.488       .  S
O2171     Al2173   1.867       .  S
O2172      C2174   1.256       .  A
O2172     Al2173   1.907       .  S
Al2173     O2181   1.915       .  S
Al2173     O2183   1.874       .  S
Al2173     O2182   1.782       .  S
C2174      O2187   1.259       .  A
C2174      C3814   1.492       .  S
O2175      C2185   1.267       .  A
O2175     Al2177   1.945       .  S
O2176      C2189   1.268       .  A
O2176     Al2186   1.948       .  S
Al2177     O2190   1.886       .  S
Al2177     O2187   1.916       .  S
Al2177     O2182   1.780       .  S
O2178      C2185   1.253       .  A
O2178     Al2186   1.859       .  S
O2179      C2188   1.262       .  A
O2182     Al2186   1.779       .  S
O2183      C2184   1.263       .  A
C2184      C3846   1.488       .  S
C2185      C3910   1.476       .  S
C2188      C3869   1.488   1_554  S
C2189      O2190   1.258       .  A
C2189      C4070   1.493       .  S
O2191      C2206   1.254       .  A
O2191     Al2199   1.874       .  S
C2192      O2202   1.265       .  A
C2192      O2193   1.278       .  A
C2192      C3878   1.483       .  S
O2193     Al2195   1.968       .  S
O2194      C2196   1.252       .  A
O2194     Al2195   1.851       .  S
Al2195     O2203   1.893       .  S
Al2195     O2205   1.942       .  S
Al2195     O2204   1.782       .  S
C2196      O2209   1.266       .  A
C2196      C3750   1.482       .  S
O2197      C2207   1.255       .  A
O2197     Al2199   1.907       .  S
O2198      C2211   1.267       .  A
O2198     Al2208   1.874       .  S
Al2199     O2212   1.958       .  S
Al2199     O2209   1.941       .  S
Al2199     O2204   1.784       .  S
O2200      C2207   1.255       .  A
O2200     Al2208   1.911       .  S
O2201      C2210   1.257       .  A
O2201     Al2208   1.918       .  S
O2202     Al2208   1.877       .  S
O2203      C2210   1.251       .  A
O2204     Al2208   1.785       .  S
O2205      C2206   1.266       .  A
C2206      C3654   1.487       .  S
C2207      C3837   1.485       .  S
C2210      C3718   1.495       .  S
C2211      O2212   1.277       .  A
C2211      C3677   1.497       .  S
O2213      C2228   1.250       .  A
O2213     Al2221   1.851       .  S
C2214      O2224   1.261       .  A
C2214      O2215   1.277       .  A
C2214      C4221   1.492       .  S
O2215     Al2217   1.973       .  S
O2216      C2218   1.249       .  A
O2216     Al2217   1.849       .  S
Al2217     O2225   1.890       .  S
Al2217     O2227   1.961       .  S
Al2217     O2226   1.771       .  S
C2218      O2231   1.271       .  A
C2218      C3741   1.490       .  S
O2219      C2229   1.257       .  A
O2220     Al2230   1.857       .  S
Al2221     O2231   1.965       .  S
Al2221     O2226   1.776       .  S
O2222     Al2230   1.912       .  S
O2223      C2232   1.258       .  A
O2223     Al2230   1.912       .  S
O2224     Al2230   1.856       .  S
O2225      C2232   1.256       .  A
O2226     Al2230   1.777       .  S
O2227      C2228   1.270       .  A
C2228      C3549   1.478       .  S
C2229      C4198   1.485       .  S
C2232      C3613   1.483       .  S
C2233      O2234   1.279       .  A
C2233      C3581   1.479       .  S
O2235      C2250   1.252       .  A
O2235     Al2243   1.874   1_655  S
C2236      O2246   1.266       .  A
C2236      O2237   1.278       .  A
C2236      C3485   1.484       .  S
O2237     Al2239   1.965   1_455  S
O2238      C2240   1.252       .  A
O2238     Al2239   1.853   1_455  S
Al2239     O2247   1.893       .  S
Al2239     O2249   1.929       .  S
Al2239     O2248   1.784   1_655  S
C2240      O2253   1.271       .  A
C2240      C3558   1.490       .  S
O2241      C2251   1.254       .  A
O2241     Al2243   1.916       .  S
O2242      C2255   1.267       .  A
O2242     Al2252   1.876   1_655  S
Al2243     O2256   1.983   1_455  S
Al2243     O2253   1.960       .  S
Al2243     O2248   1.782       .  S
O2244      C2251   1.253       .  A
O2244     Al2252   1.899       .  S
O2245      C2254   1.254       .  A
O2245     Al2252   1.909   1_655  S
O2246     Al2252   1.877       .  S
O2247      C2254   1.251       .  A
O2248     Al2252   1.783       .  S
O2249      C2250   1.262       .  A
C2250      C3645   1.476       .  S
C2251      C3517   1.491       .  S
C2254      C3453   1.479       .  S
C2255      O2256   1.284       .  A
C2255      C3430   1.498       .  S
O2257      C2272   1.272       .  A
O2257     Al2265   1.944       .  S
C2258      O2268   1.275       .  A
C2258      O2259   1.263       .  A
C2258      C3302   1.481       .  S
O2259     Al2261   1.870       .  S
O2260      C2262   1.258       .  A
O2260     Al2261   1.912       .  S
Al2261     O2269   1.914       .  S
Al2261     O2271   1.866       .  S
Al2261     O2270   1.784       .  S
C2262      O2275   1.258       .  A
C2262      C3325   1.484       .  S
O2263      C2273   1.264       .  A
O2263     Al2265   1.936       .  S
O2264      C2277   1.268       .  A
O2264     Al2274   1.949       .  S
Al2265     O2278   1.873       .  S
Al2265     O2275   1.909       .  S
Al2265     O2270   1.786       .  S
O2266      C2273   1.252       .  A
O2266     Al2274   1.861       .  S
O2267      C2276   1.255       .  A
O2267     Al2274   1.901       .  S
O2268     Al2274   1.954       .  S
O2269      C2276   1.258       .  A
O2270     Al2274   1.784       .  S
O2271      C2272   1.262       .  A
C2272      C3622   1.477       .  S
C2273      C3389   1.475       .  S
C2276      C3590   1.486       .  S
C2277      O2278   1.255       .  A
C2277      C3357   1.483       .  S
O2279      C2294   1.276       .  A
O2279     Al2287   1.964   1_565  S
C2280      O2290   1.276       .  A
C2280      O2281   1.266       .  A
C2280      C3229   1.494       .  S
O2281     Al2283   1.877       .  S
O2282      C2284   1.259       .  A
O2282     Al2283   1.918       .  S
Al2283     O2291   1.912   1_545  S
Al2283     O2293   1.875   1_545  S
Al2283     O2292   1.783       .  S
C2284      O2297   1.255       .  A
C2284      C3261   1.487       .  S
O2285      C2295   1.266       .  A
O2285     Al2287   1.942       .  S
O2286      C2299   1.268       .  A
O2286     Al2296   1.945       .  S
Al2287     O2300   1.863   1_545  S
Al2287     O2297   1.901       .  S
Al2287     O2292   1.780       .  S
O2288      C2295   1.253       .  A
O2288     Al2296   1.869   1_545  S
O2289      C2298   1.254       .  A
O2289     Al2296   1.902       .  S
O2290     Al2296   1.961   1_545  S
O2291      C2298   1.258       .  A
O2292     Al2296   1.779   1_545  S
O2293      C2294   1.263       .  A
C2294      C3526   1.479       .  S
C2295      C3197   1.479       .  S
C2298      C3494   1.484       .  S
C2299      O2300   1.253       .  A
C2299      C3366   1.482       .  S
O2301      C2316   1.276       .  A
C2302      O2312   1.279       .  A
C2302      O2303   1.269       .  A
C2302      C3078   1.497       .  S
O2303     Al2305   1.875       .  S
O2304     Al2305   1.912       .  S
Al2305     O2313   1.903       .  S
Al2305     O2315   1.873       .  S
Al2305     O2314   1.783       .  S
C2306      O2319   1.253       .  A
C2306      C3110   1.493   1_554  S
O2307      C2317   1.262       .  A
O2307     Al2309   1.923       .  S
O2308      C2321   1.266       .  A
O2308     Al2318   1.934       .  S
Al2309     O2322   1.864       .  S
Al2309     O2314   1.786       .  S
O2310      C2317   1.254       .  A
O2310     Al2318   1.872       .  S
O2311      C2320   1.253       .  A
O2311     Al2318   1.914       .  S
O2312     Al2318   1.962       .  S
O2313      C2320   1.252       .  A
O2314     Al2318   1.783       .  S
C2316      C3142   1.474       .  S
C2317      C3398   1.476       .  S
C2320      C3165   1.483       .  S
C2321      O2322   1.253       .  A
C2321      C3206   1.478       .  S
O2323      C2338   1.251       .  A
O2323     Al2331   1.862   1_565  S
C2324      O2334   1.260       .  A
C2324      O2325   1.275       .  A
C2324      C4038   1.487       .  S
O2325     Al2327   1.963   1_545  S
O2326      C2328   1.254       .  A
O2326     Al2327   1.859   1_545  S
Al2327     O2335   1.899       .  S
Al2327     O2337   1.945       .  S
Al2327     O2336   1.785       .  S
C2328      O2341   1.268       .  A
C2328      C3005   1.484       .  S
O2329      C2339   1.252       .  A
O2329     Al2331   1.889       .  S
O2330      C2343   1.262       .  A
O2330     Al2340   1.867   1_565  S
Al2331     O2344   1.963   1_545  S
Al2331     O2341   1.946       .  S
Al2331     O2336   1.782   1_545  S
O2332      C2339   1.258       .  A
O2332     Al2340   1.915       .  S
O2333      C2342   1.260       .  A
O2333     Al2340   1.914   1_565  S
O2334     Al2340   1.872       .  S
O2335      C2342   1.256       .  A
O2336     Al2340   1.781   1_565  S
O2337      C2338   1.265       .  A
C2338      C3037   1.477       .  S
C2339      C4006   1.484       .  S
C2342      C2973   1.493       .  S
C2343      O2344   1.275       .  A
C2343      C2941   1.502       .  S
O2345      C2360   1.254   1_554  A
C2346      O2356   1.259       .  A
C2346      O2347   1.273       .  A
C2346      C3334   1.482       .  S
O2347     Al2349   1.959       .  S
O2348      C2350   1.252       .  A
O2348     Al2349   1.858       .  S
Al2349     O2357   1.897       .  S
Al2349     O2359   1.957       .  S
Al2349     O2358   1.782       .  S
C2350      O2363   1.265       .  A
C2350      C2845   1.478       .  S
O2351      C2361   1.253       .  A
O2351     Al2353   1.890       .  S
O2352     Al2362   1.874       .  S
Al2353     O2366   1.959       .  S
O2354     Al2362   1.921       .  S
O2355      C2364   1.261       .  A
O2355     Al2362   1.920       .  S
O2356     Al2362   1.871       .  S
O2357      C2364   1.257       .  A
O2358     Al2362   1.780       .  S
O2359      C2360   1.270       .  A
C2360      C3046   1.483       .  S
C2361      C3293   1.490       .  S
C2364      C2909   1.483       .  S
C2365      O2366   1.276       .  A
C2365      C2886   1.498       .  S
O2367      C2382   1.252       .  A
O2367     Al2375   1.858       .  S
C2368      O2378   1.264       .  A
C2368      O2369   1.277       .  A
C2368      C3101   1.484       .  S
O2369     Al2371   1.960       .  S
O2370      C2372   1.251       .  A
O2370     Al2371   1.859       .  S
Al2371     O2379   1.902       .  S
Al2371     O2381   1.939       .  S
Al2371     O2380   1.791       .  S
C2372      O2385   1.264       .  A
C2372      C2854   1.475       .  S
O2373      C2383   1.253       .  A
O2373     Al2375   1.900       .  S
O2374      C2387   1.266       .  A
O2374     Al2384   1.874       .  S
Al2375     O2388   1.956       .  S
Al2375     O2385   1.932       .  S
Al2375     O2380   1.788       .  S
O2376      C2383   1.255       .  A
O2376     Al2384   1.911       .  S
O2377      C2386   1.254       .  A
O2377     Al2384   1.908       .  S
O2378     Al2384   1.873       .  S
O2379      C2386   1.253       .  A
O2380     Al2384   1.786       .  S
O2381      C2382   1.266       .  A
C2382      C3014   1.479       .  S
C2383      C3069   1.488       .  S
C2386      C3782   1.484       .  S
C2387      O2388   1.276       .  A
C2387      C3805   1.481       .  S
O2389      C2404   1.253       .  A
O2389     Al2397   1.862       .  S
C2390      O2400   1.270       .  A
C2390      O2391   1.280       .  A
C2390      C3174   1.479       .  S
O2391     Al2393   1.960       .  S
O2392      C2394   1.255       .  A
O2392     Al2393   1.878       .  S
Al2393     O2401   1.921       .  S
Al2393     O2403   1.936       .  S
Al2393     O2402   1.784       .  S
C2394      O2407   1.263       .  A
C2394      C2781   1.483       .  S
O2395      C2405   1.251       .  A
O2395     Al2397   1.906       .  S
O2396      C2409   1.270       .  A
O2396     Al2406   1.878       .  S
Al2397     O2410   1.955       .  S
Al2397     O2407   1.925       .  S
Al2397     O2402   1.784       .  S
O2398      C2405   1.249       .  A
O2398     Al2406   1.897       .  S
O2399      C2408   1.249       .  A
O2399     Al2406   1.896       .  S
O2400     Al2406   1.880       .  S
O2401      C2408   1.255       .  A
O2402     Al2406   1.781       .  S
O2403      C2404   1.265       .  A
C2404      C2822   1.482       .  S
C2405      C3133   1.489       .  S
C2408      C2758   1.497       .  S
C2409      O2410   1.279       .  A
C2409      C2717   1.477       .  S
O2411      C2426   1.253       .  A
O2411     Al2419   1.867       .  S
C2412      O2422   1.264       .  A
C2412      O2413   1.274       .  A
C2412      C3974   1.493       .  S
O2413     Al2415   1.955       .  S
O2414      C2416   1.253       .  A
O2414     Al2415   1.868       .  S
Al2415     O2423   1.906       .  S
Al2415     O2425   1.946       .  S
Al2415     O2424   1.782       .  S
C2416      O2429   1.267       .  A
C2416      C2685   1.477       .  S
O2417      C2427   1.256       .  A
O2417     Al2419   1.904       .  S
O2418      C2431   1.262       .  A
O2418     Al2428   1.867       .  S
Al2419     O2432   1.956       .  S
Al2419     O2429   1.943       .  S
Al2419     O2424   1.786       .  S
O2420      C2427   1.258       .  A
O2420     Al2428   1.916       .  S
O2421      C2430   1.260       .  A
O2421     Al2428   1.923       .  S
O2422     Al2428   1.868       .  S
O2423      C2430   1.256       .  A
O2424     Al2428   1.782       .  S
O2425      C2426   1.267       .  A
C2426      C2790   1.482       .  S
C2427      C3933   1.487       .  S
C2430      C3238   1.500       .  S
C2431      O2432   1.275       .  A
C2431      C3270   1.480       .  S
O2433      C2448   1.252       .  A
O2433     Al2441   1.852       .  S
C2434      O2435   1.275       .  A
C2434      C4157   1.486       .  S
O2436      C2438   1.252       .  A
O2436     Al2437   1.865       .  S
Al2437     O2447   1.941       .  S
Al2437     O2446   1.784       .  S
C2438      O2451   1.265       .  A
C2438      C2694   1.481       .  S
O2439      C2449   1.256       .  A
O2439     Al2441   1.897       .  S
O2440      C2453   1.263       .  A
O2440     Al2450   1.874       .  S
Al2441     O2454   1.955       .  S
Al2441     O2451   1.941       .  S
Al2441     O2446   1.786       .  S
O2442      C2449   1.259       .  A
O2442     Al2450   1.922       .  S
O2443     Al2450   1.922       .  S
O2444     Al2450   1.874       .  S
O2445      C2452   1.254       .  A
O2446     Al2450   1.786       .  S
O2447      C2448   1.267       .  A
C2448      C2813   1.472       .  S
C2449      C4134   1.488       .  S
C2452      C2653   1.498       .  S
C2453      O2454   1.274       .  A
C2453      C2621   1.485       .  S
O2455      C2470   1.266       .  A
O2455     Al2463   1.911       .  S
C2456      O2466   1.262       .  A
C2456      O2457   1.265       .  A
C2456      C2918   1.501       .  S
O2457     Al2459   1.911       .  S
O2458      C2460   1.256       .  A
O2458     Al2459   1.893       .  S
Al2459     O2467   1.885       .  S
Al2459     O2469   1.919       .  S
Al2459     O2468   1.781       .  S
C2460      O2473   1.258       .  A
C2460      C2877   1.490       .  S
O2461      C2471   1.267       .  A
O2461     Al2463   1.919       .  S
O2462      C2475   1.262       .  A
O2462     Al2472   1.916       .  S
Al2463     O2476   1.910       .  S
Al2463     O2473   1.917       .  S
Al2463     O2468   1.786       .  S
O2464      C2471   1.264       .  A
O2464     Al2472   1.912       .  S
O2465      C2474   1.261       .  A
O2465     Al2472   1.915       .  S
O2466     Al2472   1.909       .  S
O2467      C2474   1.255       .  A
O2468     Al2472   1.784       .  S
O2469      C2470   1.268       .  A
C2470      C2662   1.495       .  S
C2471      C2557   1.471       .  S
C2474      C2630   1.478       .  S
C2475      O2476   1.259       .  A
C2475      C2598   1.474       .  S
O2477      C2492   1.278       .  A
O2477     Al2485   1.964       .  S
C2478      O2488   1.277       .  A
C2478      C3709   1.481       .  S
O2479     Al2481   1.873       .  S
O2480      C2482   1.252       .  A
O2480     Al2481   1.902       .  S
Al2481     O2489   1.896       .  S
Al2481     O2491   1.874       .  S
Al2481     O2490   1.783       .  S
C2482      O2495   1.257       .  A
C2482      C3686   1.497       .  S
O2483      C2493   1.265       .  A
O2483     Al2485   1.937       .  S
O2484      C2497   1.266       .  A
O2484     Al2494   1.934       .  S
Al2485     O2498   1.866       .  S
Al2485     O2495   1.919       .  S
Al2485     O2490   1.784       .  S
O2486      C2493   1.253       .  A
O2486     Al2494   1.869       .  S
O2487      C2496   1.253       .  A
O2490     Al2494   1.783       .  S
O2491      C2492   1.266       .  A
C2492      C2749   1.478       .  S
C2493      C2525   1.482       .  S
C2496      C2726   1.483   1_554  S
C2497      O2498   1.254       .  A
C2497      C2589   1.479       .  S
O2499      C2514   1.274       .  A
O2499     Al2507   1.950       .  S
C2500      O2510   1.273       .  A
C2500      O2501   1.264       .  A
C2500      C2982   1.484       .  S
O2501     Al2503   1.874       .  S
O2502      C2504   1.256       .  A
O2502     Al2503   1.911       .  S
Al2503     O2511   1.924       .  S
Al2503     O2513   1.866       .  S
Al2503     O2512   1.782       .  S
C2504      O2517   1.255       .  A
C2504      C2950   1.489       .  S
O2505      C2515   1.264       .  A
O2505     Al2507   1.934       .  S
O2506      C2519   1.266       .  A
O2506     Al2516   1.936       .  S
Al2507     O2520   1.867       .  S
Al2507     O2517   1.901       .  S
Al2507     O2512   1.788       .  S
O2508      C2515   1.253       .  A
O2508     Al2516   1.864       .  S
O2509      C2518   1.257       .  A
O2509     Al2516   1.911       .  S
O2510     Al2516   1.948       .  S
O2511      C2518   1.259       .  A
O2512     Al2516   1.783       .  S
O2513      C2514   1.265       .  A
C2514      C3462   1.490       .  S
C2515      C2566   1.475       .  S
C2518      C3421   1.498       .  S
C2519      O2520   1.254       .  A
C2519      C2534   1.479       .  S
C2521      C2522   1.400       .  A
C2521      C2526   1.405       .  A
C2521      H2531   1.084       .  S
C2522      C2527   1.487       .  S
C2523      C2524   1.409       .  A
C2523      C2528   1.506       .  S
C2524      C2525   1.403       .  A
C2524      H2529   1.084       .  S
C2526      C2530   1.508       .  S
C2527      C2532   1.409       .  A
C2527      C2536   1.404       .  A
C2528      H2544   1.110       .  S
C2528      H2545   1.110       .  S
C2528      H2546   1.111       .  S
C2530      H2541   1.111       .  S
C2530      H2542   1.109       .  S
C2530      H2543   1.110       .  S
C2532      C2533   1.405       .  A
C2532      C2537   1.506       .  S
C2533      C2534   1.406       .  A
C2533      H2538   1.083       .  S
C2534      C2535   1.417       .  A
C2535      C2536   1.408       .  A
C2535      C2539   1.508       .  S
C2536      H2540   1.084       .  S
C2537      H2547   1.111       .  S
C2537      H2548   1.110       .  S
C2537      H2549   1.109   1_556  S
C2539      H2550   1.110       .  S
C2539      H2551   1.106       .  S
C2539      H2552   1.110       .  S
C2553      C2554   1.402       .  A
C2553      C2558   1.402       .  A
C2553      H2563   1.085       .  S
C2554      C2559   1.483       .  S
C2554      C2555   1.411       .  A
C2555      C2556   1.407       .  A
C2555      C2560   1.505       .  S
C2556      C2557   1.403       .  A
C2556      H2561   1.084       .  S
C2557      C2558   1.413       .  A
C2558      C2562   1.506       .  S
C2559      C2564   1.414       .  A
C2559      C2568   1.399       .  A
C2560      H2576   1.110       .  S
C2560      H2577   1.110       .  S
C2560      H2578   1.111       .  S
C2562      H2573   1.110       .  S
C2562      H2574   1.110       .  S
C2562      H2575   1.108       .  S
C2564      C2565   1.407       .  A
C2564      C2569   1.506       .  S
C2565      C2566   1.402       .  A
C2565      H2570   1.085       .  S
C2566      C2567   1.417       .  A
C2567      C2568   1.401       .  A
C2567      C2571   1.507       .  S
C2568      H2572   1.085       .  S
C2569      H2579   1.111       .  S
C2569      H2580   1.110       .  S
C2569      H2581   1.111       .  S
C2571      H2582   1.110       .  S
C2571      H2583   1.109       .  S
C2571      H2584   1.110       .  S
C2585      C2586   1.404       .  A
C2585      C2590   1.407       .  A
C2585      H2595   1.085       .  S
C2586      C2591   1.487       .  S
C2586      C2587   1.409       .  A
C2587      C2588   1.404       .  A
C2587      C2592   1.506       .  S
C2588      C2589   1.407       .  A
C2588      H2593   1.085       .  S
C2589      C2590   1.416       .  A
C2590      C2594   1.507       .  S
C2591      C2596   1.413       .  A
C2591      C2600   1.403       .  A
C2592      H2608   1.110       .  S
C2592      H2609   1.110       .  S
C2592      H2610   1.111       .  S
C2594      H2605   1.111       .  S
C2594      H2606   1.111       .  S
C2594      H2607   1.106       .  S
C2596      C2597   1.404       .  A
C2596      C2601   1.507       .  S
C2597      C2598   1.402       .  A
C2597      H2602   1.083       .  S
C2598      C2599   1.415       .  A
C2599      C2600   1.407       .  A
C2599      C2603   1.508       .  S
C2600      H2604   1.084       .  S
C2601      H2611   1.111       .  S
C2601      H2612   1.110       .  S
C2601      H2613   1.110       .  S
C2603      H2614   1.110       .  S
C2603      H2615   1.108       .  S
C2603      H2616   1.110       .  S
C2617      C2618   1.398       .  A
C2617      C2622   1.400       .  A
C2617      H2627   1.085       .  S
C2618      C2623   1.482       .  S
C2618      C2619   1.411       .  A
C2619      C2620   1.409       .  A
C2619      C2624   1.506       .  S
C2620      C2621   1.407       .  A
C2620      H2625   1.084       .  S
C2621      C2622   1.420       .  A
C2622      C2626   1.510       .  S
C2623      C2628   1.413       .  A
C2623      C2632   1.402       .  A
C2624      H2640   1.110       .  S
C2624      H2641   1.108       .  S
C2624      H2642   1.111       .  S
C2626      H2637   1.108       .  S
C2626      H2638   1.111       .  S
C2626      H2639   1.111       .  S
C2628      C2629   1.403       .  A
C2628      C2633   1.508       .  S
C2629      C2630   1.403       .  A
C2629      H2634   1.085       .  S
C2630      C2631   1.416       .  A
C2631      C2632   1.405       .  A
C2631      C2635   1.506       .  S
C2632      H2636   1.085       .  S
C2633      H2643   1.111       .  S
C2633      H2644   1.110       .  S
C2633      H2645   1.108       .  S
C2635      H2646   1.110       .  S
C2635      H2647   1.105       .  S
C2635      H2648   1.111       .  S
C2649      C2650   1.400       .  A
C2649      C2654   1.408       .  A
C2649      H2659   1.085       .  S
C2650      C2655   1.489       .  S
C2650      C2651   1.410       .  A
C2651      C2652   1.407       .  A
C2651      C2656   1.506       .  S
C2652      C2653   1.409       .  A
C2652      H2657   1.084       .  S
C2653      C2654   1.424       .  A
C2655      C2660   1.409       .  A
C2655      C2664   1.404       .  A
C2656      H2672   1.110       .  S
C2656      H2673   1.110       .  S
C2656      H2674   1.111       .  S
C2658      H2670   1.111       .  S
C2658      H2671   1.110       .  S
C2660      C2661   1.401       .  A
C2660      C2665   1.508       .  S
C2661      C2662   1.409       .  A
C2661      H2666   1.083       .  S
C2662      C2663   1.420       .  A
C2663      C2664   1.413       .  A
C2663      C2667   1.507       .  S
C2664      H2668   1.082       .  S
C2665      H2675   1.110       .  S
C2665      H2676   1.110       .  S
C2665      H2677   1.110       .  S
C2667      H2678   1.110       .  S
C2667      H2679   1.111       .  S
C2667      H2680   1.110       .  S
C2681      C2682   1.399       .  A
C2681      C2686   1.403       .  A
C2681      H2691   1.084       .  S
C2682      C2687   1.484       .  S
C2682      C2683   1.414       .  A
C2683      C2684   1.407       .  A
C2683      C2688   1.507       .  S
C2684      C2685   1.403       .  A
C2684      H2689   1.083       .  S
C2685      C2686   1.418       .  A
C2686      C2690   1.508       .  S
C2687      C2692   1.415       .  A
C2687      C2696   1.398       .  A
C2688      H2704   1.110       .  S
C2688      H2705   1.109       .  S
C2688      H2706   1.111       .  S
C2690      H2701   1.109       .  S
C2690      H2702   1.110       .  S
C2690      H2703   1.109       .  S
C2692      C2697   1.506       .  S
C2693      C2694   1.403       .  A
C2693      H2698   1.085       .  S
C2695      C2696   1.401       .  A
C2695      C2699   1.507       .  S
C2696      H2700   1.084       .  S
C2697      H2709   1.109       .  S
C2699      H2710   1.111       .  S
C2699      H2711   1.108       .  S
C2699      H2712   1.110       .  S
C2713      C2714   1.402       .  A
C2713      C2718   1.407       .  A
C2713      H2723   1.084       .  S
C2714      C2719   1.479       .  S
C2714      C2715   1.409       .  A
C2715      C2716   1.399       .  A
C2715      C2720   1.508       .  S
C2716      C2717   1.405       .  A
C2716      H2721   1.085       .  S
C2717      C2718   1.417       .  A
C2718      C2722   1.507       .  S
C2719      C2724   1.409       .  A
C2719      C2728   1.398       .  A
C2720      H2736   1.110       .  S
C2720      H2737   1.110       .  S
C2720      H2738   1.111       .  S
C2722      H2733   1.110       .  S
C2722      H2734   1.111       .  S
C2722      H2735   1.105       .  S
C2724      C2725   1.407       .  A
C2724      C2729   1.505       .  S
C2725      C2726   1.407       .  A
C2725      H2730   1.083   1_556  S
C2726      C2727   1.421       .  A
C2727      C2728   1.400       .  A
C2727      C2731   1.510       .  S
C2728      H2732   1.083       .  S
C2729      H2739   1.111       .  S
C2729      H2740   1.111       .  S
C2729      H2741   1.109       .  S
C2731      H2742   1.110       .  S
C2731      H2743   1.109       .  S
C2731      H2744   1.111       .  S
C2745      C2746   1.400       .  A
C2745      C2750   1.400       .  A
C2745      H2755   1.084       .  S
C2746      C2751   1.489       .  S
C2746      C2747   1.415       .  A
C2747      C2748   1.410       .  A
C2747      C2752   1.505       .  S
C2748      C2749   1.404       .  A
C2748      H2753   1.084       .  S
C2749      C2750   1.417       .  A
C2750      C2754   1.510       .  S
C2751      C2756   1.412       .  A
C2751      C2760   1.399       .  A
C2752      H2768   1.109       .  S
C2752      H2769   1.110       .  S
C2752      H2770   1.111       .  S
C2754      H2765   1.111       .  S
C2754      H2766   1.110       .  S
C2754      H2767   1.108       .  S
C2756      C2757   1.409       .  A
C2756      C2761   1.506       .  S
C2757      C2758   1.408       .  A
C2757      H2762   1.084       .  S
C2758      C2759   1.425       .  A
C2759      C2760   1.405       .  A
C2759      C2763   1.510       .  S
C2760      H2764   1.085       .  S
C2761      H2771   1.111       .  S
C2761      H2772   1.109       .  S
C2761      H2773   1.111       .  S
C2763      H2774   1.111       .  S
C2763      H2775   1.110       .  S
C2763      H2776   1.110       .  S
C2777      C2778   1.405       .  A
C2777      C2782   1.408       .  A
C2777      H2787   1.084       .  S
C2778      C2783   1.491       .  S
C2778      C2779   1.410       .  A
C2779      C2780   1.406       .  A
C2779      C2784   1.506       .  S
C2780      C2781   1.408       .  A
C2780      H2785   1.085       .  S
C2781      C2782   1.416       .  A
C2782      C2786   1.507       .  S
C2783      C2788   1.411       .  A
C2783      C2792   1.405       .  A
C2784      H2800   1.110       .  S
C2784      H2801   1.110       .  S
C2784      H2802   1.111       .  S
C2786      H2797   1.110       .  S
C2786      H2798   1.110       .  S
C2786      H2799   1.106       .  S
C2788      C2789   1.407       .  A
C2788      C2793   1.506       .  S
C2789      C2790   1.407       .  A
C2789      H2794   1.085       .  S
C2790      C2791   1.416       .  A
C2791      C2792   1.408       .  A
C2791      C2795   1.507       .  S
C2792      H2796   1.086       .  S
C2793      H2803   1.111       .  S
C2793      H2804   1.110       .  S
C2793      H2805   1.110       .  S
C2795      H2806   1.111       .  S
C2795      H2807   1.107       .  S
C2795      H2808   1.110       .  S
C2809      C2810   1.405       .  A
C2809      C2814   1.406       .  A
C2809      H2819   1.085       .  S
C2810      C2815   1.486       .  S
C2810      C2811   1.409       .  A
C2811      C2812   1.404       .  A
C2811      C2816   1.506       .  S
C2812      C2813   1.406       .  A
C2812      H2817   1.085       .  S
C2813      C2814   1.413       .  A
C2814      C2818   1.507       .  S
C2815      C2820   1.407       .  A
C2815      C2824   1.406       .  A
C2816      H2832   1.110       .  S
C2816      H2833   1.110       .  S
C2816      H2834   1.111       .  S
C2818      H2829   1.111       .  S
C2818      H2830   1.110       .  S
C2818      H2831   1.108       .  S
C2820      C2821   1.402       .  A
C2820      C2825   1.507       .  S
C2821      C2822   1.408       .  A
C2821      H2826   1.085       .  S
C2822      C2823   1.416       .  A
C2823      C2824   1.409       .  A
C2823      C2827   1.507       .  S
C2824      H2828   1.085       .  S
C2825      H2835   1.111       .  S
C2825      H2836   1.110       .  S
C2825      H2837   1.110       .  S
C2827      H2838   1.110       .  S
C2827      H2839   1.106       .  S
C2827      H2840   1.110       .  S
C2841      C2842   1.406       .  A
C2841      C2846   1.408       .  A
C2841      H2851   1.083   1_565  S
C2842      C2847   1.483   1_565  S
C2842      C2843   1.408       .  A
C2843      C2844   1.400       .  A
C2843      C2848   1.507       .  S
C2844      C2845   1.406       .  A
C2844      H2849   1.083       .  S
C2845      C2846   1.412       .  A
C2846      C2850   1.506       .  S
C2847      C2852   1.408       .  A
C2847      C2856   1.403       .  A
C2848      H2864   1.110       .  S
C2848      H2865   1.110       .  S
C2848      H2866   1.111       .  S
C2850      H2861   1.110       .  S
C2850      H2862   1.110       .  S
C2850      H2863   1.110       .  S
C2852      C2853   1.404       .  A
C2852      C2857   1.506       .  S
C2853      C2854   1.407       .  A
C2853      H2858   1.084       .  S
C2854      C2855   1.414       .  A
C2855      C2856   1.404       .  A
C2855      C2859   1.506       .  S
C2856      H2860   1.084   1_545  S
C2857      H2867   1.111       .  S
C2857      H2868   1.110       .  S
C2857      H2869   1.110       .  S
C2859      H2870   1.110       .  S
C2859      H2871   1.107       .  S
C2859      H2872   1.110       .  S
C2873      C2874   1.401       .  A
C2873      C2878   1.407       .  A
C2873      H2883   1.085       .  S
C2874      C2879   1.483       .  S
C2874      C2875   1.409       .  A
C2875      C2876   1.403       .  A
C2875      C2880   1.507       .  S
C2876      C2877   1.408       .  A
C2876      H2881   1.085       .  S
C2877      C2878   1.420       .  A
C2878      C2882   1.508       .  S
C2879      C2884   1.408       .  A
C2879      C2888   1.396       .  A
C2880      H2896   1.110       .  S
C2880      H2897   1.110       .  S
C2880      H2898   1.111       .  S
C2882      H2893   1.111       .  S
C2882      H2894   1.109       .  S
C2882      H2895   1.110       .  S
C2884      C2885   1.408       .  A
C2884      C2889   1.505       .  S
C2885      C2886   1.411       .  A
C2885      H2890   1.083       .  S
C2886      C2887   1.425       .  A
C2887      C2888   1.401       .  A
C2887      C2891   1.508       .  S
C2888      H2892   1.085       .  S
C2889      H2899   1.111       .  S
C2889      H2900   1.110       .  S
C2889      H2901   1.110       .  S
C2891      H2904   1.111       .  S
C2905      C2906   1.402       .  A
C2905      C2910   1.406       .  A
C2905      H2915   1.084       .  S
C2906      C2911   1.486       .  S
C2906      C2907   1.410       .  A
C2907      C2908   1.406       .  A
C2907      C2912   1.506       .  S
C2908      C2909   1.405       .  A
C2908      H2913   1.084       .  S
C2909      C2910   1.417       .  A
C2910      C2914   1.508       .  S
C2911      C2916   1.408       .  A
C2911      C2920   1.401       .  A
C2912      H2928   1.110       .  S
C2912      H2929   1.110       .  S
C2912      H2930   1.111       .  S
C2914      H2925   1.111       .  S
C2914      H2926   1.111       .  S
C2914      H2927   1.110       .  S
C2916      C2917   1.402       .  A
C2916      C2921   1.508       .  S
C2917      C2918   1.411       .  A
C2917      H2922   1.084       .  S
C2918      C2919   1.425       .  A
C2919      C2920   1.411       .  A
C2919      C2923   1.507       .  S
C2920      H2924   1.084       .  S
C2921      H2931   1.111       .  S
C2921      H2932   1.110       .  S
C2921      H2933   1.110       .  S
C2923      H2934   1.107       .  S
C2923      H2935   1.110       .  S
C2923      H2936   1.111       .  S
C2937      H2947   1.084       .  S
C2938      C2939   1.407       .  A
C2939      C2940   1.399       .  A
C2939      C2944   1.509       .  S
C2940      C2941   1.412       .  A
C2940      H2945   1.082       .  S
C2941      C2942   1.422       .  A
C2942      C2946   1.506       .  S
C2943      C2948   1.410       .  A
C2943      C2952   1.398       .  A
C2944      H2960   1.110       .  S
C2944      H2961   1.110       .  S
C2944      H2962   1.111       .  S
C2946      H2959   1.110       .  S
C2948      C2949   1.405       .  A
C2948      C2953   1.507   1_556  S
C2949      C2950   1.409       .  A
C2949      H2954   1.084       .  S
C2950      C2951   1.421       .  A
C2951      C2952   1.403       .  A
C2951      C2955   1.508       .  S
C2953      H2963   1.111       .  S
C2953      H2964   1.110   1_554  S
C2953      H2965   1.110       .  S
C2955      H2966   1.110       .  S
C2955      H2967   1.109       .  S
C2969      C2970   1.401       .  A
C2969      C2974   1.409       .  A
C2969      H2979   1.084       .  S
C2970      C2975   1.481       .  S
C2970      C2971   1.407       .  A
C2971      C2972   1.400       .  A
C2971      C2976   1.508       .  S
C2972      C2973   1.409       .  A
C2972      H2977   1.083       .  S
C2973      C2974   1.423       .  A
C2974      C2978   1.508       .  S
C2975      C2980   1.409       .  A
C2975      C2984   1.403       .  A
C2976      H2992   1.110       .  S
C2976      H2993   1.110       .  S
C2976      H2994   1.110       .  S
C2978      H2989   1.109       .  S
C2978      H2990   1.111       .  S
C2978      H2991   1.110       .  S
C2980      C2981   1.399       .  A
C2980      C2985   1.508       .  S
C2981      C2982   1.407       .  A
C2981      H2986   1.084       .  S
C2982      C2983   1.416       .  A
C2983      C2984   1.409       .  A
C2983      C2987   1.506       .  S
C2984      H2988   1.084       .  S
C2985      H2995   1.111       .  S
C2985      H2996   1.110       .  S
C2985      H2997   1.110       .  S
C2987      H2998   1.110       .  S
C2987      H2999   1.111       .  S
C2987      H3000   1.111       .  S
C3001      C3002   1.405       .  A
C3001      C3006   1.408       .  A
C3001      H3011   1.085       .  S
C3002      C3007   1.488       .  S
C3002      C3003   1.409       .  A
C3003      C3004   1.403       .  A
C3003      C3008   1.507       .  S
C3004      C3005   1.409       .  A
C3004      H3009   1.085       .  S
C3005      C3006   1.418       .  A
C3006      C3010   1.508       .  S
C3007      C3012   1.410       .  A
C3007      C3016   1.405       .  A
C3008      H3024   1.110       .  S
C3008      H3025   1.110       .  S
C3008      H3026   1.110       .  S
C3010      H3021   1.111       .  S
C3010      H3022   1.110       .  S
C3010      H3023   1.104       .  S
C3012      C3013   1.404       .  A
C3012      C3017   1.506       .  S
C3013      C3014   1.407       .  A
C3013      H3018   1.085       .  S
C3014      C3015   1.415       .  A
C3015      C3016   1.407       .  A
C3015      C3019   1.506       .  S
C3016      H3020   1.084       .  S
C3017      H3027   1.111       .  S
C3017      H3028   1.110       .  S
C3017      H3029   1.110       .  S
C3019      H3030   1.110       .  S
C3019      H3031   1.107       .  S
C3019      H3032   1.110       .  S
C3033      C3034   1.401       .  A
C3033      C3038   1.405       .  A
C3033      H3043   1.084       .  S
C3034      C3039   1.487       .  S
C3034      C3035   1.414       .  A
C3035      C3036   1.408       .  A
C3035      C3040   1.506       .  S
C3036      C3037   1.403       .  A
C3036      H3041   1.085       .  S
C3037      C3038   1.415       .  A
C3038      C3042   1.508       .  S
C3039      C3048   1.398       .  A
C3040      H3056   1.110       .  S
C3040      H3057   1.110       .  S
C3040      H3058   1.111       .  S
C3042      H3053   1.107       .  S
C3042      H3054   1.111       .  S
C3042      H3055   1.110       .  S
C3044      C3045   1.410   1_554  A
C3044      C3049   1.507   1_554  S
C3045      C3046   1.404       .  A
C3045      H3050   1.084       .  S
C3047      C3048   1.403       .  A
C3047      C3051   1.507       .  S
C3048      H3052   1.083       .  S
C3049      H3059   1.111       .  S
C3049      H3060   1.110       .  S
C3049      H3061   1.108   1_556  S
C3051      H3062   1.110       .  S
C3051      H3063   1.105       .  S
C3051      H3064   1.111       .  S
C3065      C3066   1.402       .  A
C3065      C3070   1.406       .  A
C3065      H3075   1.084       .  S
C3066      C3071   1.485       .  S
C3066      C3067   1.409       .  A
C3067      C3068   1.405       .  A
C3067      C3072   1.506       .  S
C3068      C3069   1.407       .  A
C3068      H3073   1.084       .  S
C3069      C3070   1.418       .  A
C3070      C3074   1.507       .  S
C3071      C3076   1.408       .  A
C3071      C3080   1.403       .  A
C3072      H3088   1.110       .  S
C3072      H3089   1.110       .  S
C3072      H3090   1.111       .  S
C3074      H3085   1.111       .  S
C3074      H3086   1.109       .  S
C3074      H3087   1.111       .  S
C3076      C3077   1.399       .  A
C3076      C3081   1.508       .  S
C3077      C3078   1.409       .  A
C3077      H3082   1.084       .  S
C3078      C3079   1.423       .  A
C3079      C3080   1.412       .  A
C3079      C3083   1.507       .  S
C3080      H3084   1.084       .  S
C3081      H3091   1.111       .  S
C3081      H3092   1.110       .  S
C3081      H3093   1.110       .  S
C3083      H3094   1.109       .  S
C3083      H3095   1.110       .  S
C3083      H3096   1.111       .  S
C3097      C3098   1.398       .  A
C3097      C3102   1.401       .  A
C3097      H3107   1.084       .  S
C3098      C3103   1.486       .  S
C3098      C3099   1.413       .  A
C3099      C3100   1.411       .  A
C3099      C3104   1.505       .  S
C3100      C3101   1.405       .  A
C3100      H3105   1.083       .  S
C3101      C3102   1.419       .  A
C3102      C3106   1.509       .  S
C3103      C3108   1.410       .  A
C3103      C3112   1.402       .  A
C3104      H3120   1.111       .  S
C3104      H3121   1.110       .  S
C3104      H3122   1.111       .  S
C3106      H3117   1.108       .  S
C3106      H3118   1.111       .  S
C3106      H3119   1.111       .  S
C3108      C3109   1.402       .  A
C3108      C3113   1.508       .  S
C3109      C3110   1.407       .  A
C3109      H3114   1.084       .  S
C3110      C3111   1.421       .  A
C3111      C3112   1.411       .  A
C3111      C3115   1.507   1_556  S
C3112      H3116   1.084       .  S
C3113      H3123   1.111       .  S
C3113      H3124   1.110       .  S
C3113      H3125   1.109       .  S
C3115      H3126   1.110   1_554  S
C3115      H3127   1.110       .  S
C3129      C3130   1.398       .  A
C3129      C3134   1.401       .  A
C3129      H3139   1.085       .  S
C3130      C3135   1.481       .  S
C3130      C3131   1.409       .  A
C3131      C3132   1.407       .  A
C3131      C3136   1.506       .  S
C3132      C3133   1.409       .  A
C3132      H3137   1.084       .  S
C3133      C3134   1.422       .  A
C3134      C3138   1.509       .  S
C3135      C3140   1.412       .  A
C3135      C3144   1.399       .  A
C3136      H3152   1.110       .  S
C3136      H3153   1.110       .  S
C3136      H3154   1.111       .  S
C3138      H3149   1.109       .  S
C3138      H3150   1.111       .  S
C3138      H3151   1.110       .  S
C3140      C3141   1.407       .  A
C3140      C3145   1.505       .  S
C3141      C3142   1.403       .  A
C3141      H3146   1.084       .  S
C3142      C3143   1.417       .  A
C3143      C3144   1.399       .  A
C3143      C3147   1.510       .  S
C3144      H3148   1.085       .  S
C3145      H3155   1.111       .  S
C3145      H3156   1.110       .  S
C3145      H3157   1.110       .  S
C3147      H3160   1.111       .  S
C3161      C3162   1.400       .  A
C3161      C3166   1.402       .  A
C3161      H3171   1.085       .  S
C3162      C3167   1.486       .  S
C3162      C3163   1.412       .  A
C3163      C3164   1.410       .  A
C3163      C3168   1.505       .  S
C3164      C3165   1.406       .  A
C3164      H3169   1.085       .  S
C3165      C3166   1.417       .  A
C3166      C3170   1.509       .  S
C3167      C3172   1.410       .  A
C3167      C3176   1.404       .  A
C3168      H3184   1.111       .  S
C3168      H3185   1.110       .  S
C3168      H3186   1.111       .  S
C3170      H3181   1.111       .  S
C3170      H3182   1.109       .  S
C3170      H3183   1.110       .  S
C3172      C3173   1.401       .  A
C3172      C3177   1.507       .  S
C3173      C3174   1.404       .  A
C3173      H3178   1.086       .  S
C3174      C3175   1.416       .  A
C3175      C3176   1.409       .  A
C3175      C3179   1.507       .  S
C3176      H3180   1.085       .  S
C3177      H3187   1.111       .  S
C3177      H3188   1.110       .  S
C3177      H3189   1.110       .  S
C3179      H3190   1.110       .  S
C3179      H3191   1.106       .  S
C3179      H3192   1.110       .  S
C3193      C3194   1.401       .  A
C3193      C3198   1.406       .  A
C3193      H3203   1.084       .  S
C3194      C3199   1.489       .  S
C3194      C3195   1.415       .  A
C3195      C3196   1.408       .  A
C3195      C3200   1.507       .  S
C3196      C3197   1.402       .  A
C3196      H3201   1.084       .  S
C3197      C3198   1.418       .  A
C3198      C3202   1.509       .  S
C3199      C3204   1.410       .  A
C3200      H3216   1.110       .  S
C3200      H3217   1.109       .  S
C3200      H3218   1.111       .  S
C3202      H3213   1.110       .  S
C3202      H3214   1.111       .  S
C3202      H3215   1.109       .  S
C3204      C3205   1.405       .  A
C3204      C3209   1.507       .  S
C3205      H3210   1.083       .  S
C3206      C3207   1.415       .  A
C3207      C3208   1.407       .  A
C3207      C3211   1.507       .  S
C3208      H3212   1.084       .  S
C3209      H3219   1.111       .  S
C3209      H3220   1.110       .  S
C3209      H3221   1.109       .  S
C3211      H3222   1.110       .  S
C3211      H3223   1.106       .  S
C3211      H3224   1.110       .  S
C3225      H3235   1.084       .  S
C3226      C3227   1.411   1_554  A
C3227      C3228   1.401       .  A
C3227      C3232   1.508       .  S
C3228      C3229   1.408       .  A
C3228      H3233   1.085       .  S
C3229      C3230   1.419       .  A
C3231      C3236   1.410       .  A
C3231      C3240   1.402       .  A
C3232      H3248   1.109       .  S
C3232      H3249   1.110       .  S
C3232      H3250   1.111       .  S
C3234      H3245   1.111       .  S
C3234      H3246   1.110       .  S
C3236      C3237   1.406       .  A
C3236      C3241   1.507       .  S
C3237      C3238   1.410       .  A
C3237      H3242   1.085       .  S
C3238      C3239   1.422       .  A
C3239      C3240   1.410       .  A
C3239      C3243   1.507       .  S
C3240      H3244   1.085       .  S
C3241      H3251   1.111       .  S
C3241      H3252   1.110       .  S
C3243      H3254   1.111       .  S
C3243      H3255   1.110       .  S
C3243      H3256   1.109       .  S
C3257      C3258   1.402       .  A
C3257      C3262   1.409       .  A
C3257      H3267   1.084       .  S
C3258      C3263   1.483       .  S
C3258      C3259   1.411       .  A
C3259      C3260   1.401       .  A
C3259      C3264   1.508       .  S
C3260      C3261   1.405       .  A
C3260      H3265   1.084       .  S
C3261      C3262   1.420       .  A
C3262      C3266   1.508       .  S
C3263      C3268   1.412       .  A
C3263      C3272   1.398       .  A
C3264      H3280   1.110       .  S
C3264      H3281   1.110       .  S
C3264      H3282   1.111       .  S
C3266      H3277   1.111       .  S
C3266      H3278   1.109       .  S
C3266      H3279   1.111       .  S
C3268      C3269   1.410       .  A
C3268      C3273   1.504       .  S
C3269      C3270   1.405       .  A
C3269      H3274   1.084       .  S
C3270      C3271   1.418       .  A
C3271      C3272   1.399       .  A
C3271      C3275   1.510       .  S
C3272      H3276   1.085       .  S
C3273      H3283   1.111       .  S
C3273      H3284   1.110       .  S
C3273      H3285   1.110       .  S
C3275      H3286   1.111       .  S
C3275      H3287   1.110       .  S
C3275      H3288   1.109       .  S
C3289      C3290   1.400       .  A
C3289      C3294   1.407       .  A
C3289      H3299   1.084       .  S
C3290      C3295   1.483       .  S
C3290      C3291   1.409       .  A
C3291      C3292   1.402       .  A
C3291      C3296   1.507       .  S
C3292      C3293   1.407       .  A
C3293      C3294   1.422       .  A
C3294      C3298   1.508       .  S
C3295      C3300   1.409       .  A
C3295      C3304   1.404       .  A
C3296      H3312   1.110       .  S
C3296      H3313   1.111       .  S
C3296      H3314   1.111       .  S
C3298      H3309   1.111       .  S
C3298      H3310   1.109       .  S
C3298      H3311   1.109       .  S
C3300      C3301   1.399       .  A
C3300      C3305   1.508       .  S
C3301      C3302   1.406       .  A
C3301      H3306   1.084       .  S
C3302      C3303   1.417       .  A
C3303      C3304   1.408       .  A
C3303      C3307   1.507       .  S
C3304      H3308   1.083       .  S
C3305      H3315   1.111       .  S
C3305      H3316   1.110       .  S
C3305      H3317   1.110       .  S
C3307      H3318   1.110       .  S
C3307      H3319   1.106       .  S
C3307      H3320   1.111       .  S
C3321      C3322   1.404       .  A
C3321      C3326   1.410       .  A
C3321      H3331   1.084       .  S
C3322      C3327   1.487       .  S
C3322      C3323   1.411       .  A
C3323      C3324   1.402       .  A
C3323      C3328   1.508       .  S
C3324      C3325   1.405       .  A
C3324      H3329   1.085       .  S
C3325      C3326   1.418       .  A
C3326      C3330   1.508       .  S
C3327      C3332   1.413       .  A
C3327      C3336   1.399       .  A
C3328      H3344   1.110       .  S
C3328      H3345   1.110       .  S
C3328      H3346   1.111       .  S
C3330      H3341   1.111       .  S
C3330      H3342   1.110       .  S
C3330      H3343   1.107       .  S
C3332      C3333   1.411       .  A
C3332      C3337   1.505       .  S
C3333      C3334   1.404       .  A
C3333      H3338   1.084       .  S
C3334      C3335   1.419       .  A
C3335      C3336   1.401       .  A
C3335      C3339   1.509       .  S
C3336      H3340   1.085       .  S
C3337      H3347   1.111       .  S
C3337      H3348   1.110       .  S
C3337      H3349   1.110       .  S
C3339      H3350   1.111       .  S
C3339      H3351   1.110       .  S
C3339      H3352   1.108       .  S
C3353      C3354   1.400       .  A
C3353      C3358   1.406       .  A
C3353      H3363   1.084       .  S
C3354      C3359   1.489       .  S
C3354      C3355   1.414       .  A
C3355      C3356   1.409       .  A
C3355      C3360   1.506       .  S
C3356      C3357   1.403       .  A
C3356      H3361   1.084       .  S
C3357      C3358   1.417       .  A
C3358      C3362   1.504       .  S
C3359      C3364   1.409       .  A
C3359      C3368   1.405       .  A
C3360      H3376   1.110       .  S
C3360      H3377   1.110       .  S
C3360      H3378   1.111       .  S
C3362      H3373   1.111       .  S
C3362      H3374   1.109       .  S
C3362      H3375   1.109       .  S
C3364      C3365   1.404       .  A
C3364      C3369   1.506       .  S
C3365      C3366   1.407       .  A
C3365      H3370   1.085       .  S
C3366      C3367   1.417       .  A
C3367      C3368   1.409       .  A
C3367      C3371   1.508       .  S
C3368      H3372   1.084       .  S
C3369      H3379   1.111       .  S
C3369      H3380   1.110       .  S
C3369      H3381   1.110       .  S
C3371      H3382   1.110       .  S
C3371      H3383   1.106       .  S
C3371      H3384   1.111       .  S
C3385      C3386   1.400       .  A
C3385      C3390   1.403       .  A
C3385      H3395   1.084       .  S
C3386      C3391   1.485   1_565  S
C3386      C3387   1.414       .  A
C3387      C3388   1.406       .  A
C3387      C3392   1.507   1_565  S
C3388      C3389   1.402       .  A
C3388      H3393   1.084       .  S
C3389      C3390   1.417       .  A
C3390      C3394   1.509       .  S
C3391      C3396   1.409       .  A
C3391      C3400   1.404       .  A
C3392      H3408   1.110       .  S
C3392      H3409   1.109       .  S
C3392      H3410   1.111       .  S
C3394      H3405   1.110       .  S
C3394      H3406   1.111       .  S
C3394      H3407   1.109       .  S
C3396      C3397   1.403       .  A
C3396      C3401   1.506       .  S
C3397      C3398   1.405       .  A
C3397      H3402   1.085       .  S
C3398      C3399   1.415       .  A
C3399      C3400   1.407       .  A
C3399      C3403   1.507       .  S
C3400      H3404   1.085   1_545  S
C3401      H3411   1.111       .  S
C3401      H3412   1.110       .  S
C3401      H3413   1.109       .  S
C3403      H3414   1.111       .  S
C3403      H3415   1.107       .  S
C3403      H3416   1.110       .  S
C3417      C3418   1.404       .  A
C3417      C3422   1.411       .  A
C3417      H3427   1.084       .  S
C3418      C3423   1.498       .  S
C3418      C3419   1.414       .  A
C3419      C3420   1.409       .  A
C3419      C3424   1.507       .  S
C3420      C3421   1.408       .  A
C3420      H3425   1.085       .  S
C3421      C3422   1.420       .  A
C3422      C3426   1.507       .  S
C3423      C3428   1.415       .  A
C3423      C3432   1.400       .  A
C3424      H3440   1.109       .  S
C3424      H3441   1.110       .  S
C3424      H3442   1.111       .  S
C3426      H3437   1.110       .  S
C3426      H3438   1.111       .  S
C3426      H3439   1.111       .  S
C3428      C3429   1.415       .  A
C3428      C3433   1.505       .  S
C3429      C3430   1.408       .  A
C3429      H3434   1.083       .  S
C3430      C3431   1.423       .  A
C3431      C3432   1.405       .  A
C3431      C3435   1.510       .  S
C3432      H3436   1.083       .  S
C3433      H3443   1.111       .  S
C3433      H3444   1.109       .  S
C3433      H3445   1.110       .  S
C3435      H3446   1.109       .  S
C3435      H3447   1.111       .  S
C3435      H3448   1.111       .  S
C3449      C3450   1.400       .  A
C3449      C3454   1.404       .  A
C3450      C3451   1.410       .  A
C3451      C3452   1.400       .  A
C3451      C3456   1.508       .  S
C3452      C3453   1.405       .  A
C3452      H3457   1.084       .  S
C3453      C3454   1.417       .  A
C3454      C3458   1.507       .  S
C3455      C3460   1.407   1_554  A
C3456      H3472   1.110       .  S
C3456      H3473   1.111       .  S
C3456      H3474   1.111       .  S
C3458      H3469   1.111       .  S
C3458      H3470   1.110       .  S
C3458      H3471   1.109       .  S
C3460      C3461   1.395       .  A
C3460      C3465   1.509       .  S
C3461      C3462   1.409       .  A
C3461      H3466   1.083       .  S
C3462      C3463   1.422       .  A
C3464      H3468   1.085       .  S
C3465      H3475   1.111       .  S
C3465      H3476   1.110       .  S
C3465      H3477   1.110       .  S
C3467      H3478   1.111       .  S
C3467      H3480   1.111       .  S
C3481      C3482   1.398       .  A
C3481      C3486   1.402       .  A
C3481      H3491   1.084       .  S
C3482      C3483   1.413       .  A
C3483      C3484   1.410       .  A
C3483      C3488   1.505       .  S
C3484      C3485   1.405       .  A
C3484      H3489   1.083       .  S
C3485      C3486   1.418       .  A
C3486      C3490   1.507       .  S
C3487      C3496   1.403       .  A
C3488      H3505   1.109       .  S
C3488      H3506   1.110       .  S
C3490      H3501   1.109       .  S
C3490      H3502   1.111       .  S
C3490      H3503   1.111       .  S
C3492      C3497   1.508       .  S
C3493      C3494   1.404       .  A
C3493      H3498   1.084       .  S
C3494      C3495   1.418       .  A
C3495      C3496   1.410       .  A
C3495      C3499   1.507       .  S
C3496      H3500   1.084       .  S
C3497      H3507   1.111       .  S
C3497      H3508   1.110       .  S
C3497      H3509   1.109       .  S
C3499      H3510   1.109       .  S
C3499      H3511   1.111       .  S
C3499      H3512   1.111       .  S
C3513      C3514   1.405       .  A
C3513      C3518   1.411       .  A
C3513      H3523   1.083       .  S
C3514      C3519   1.490       .  S
C3514      C3515   1.411       .  A
C3515      C3516   1.401       .  A
C3515      C3520   1.508       .  S
C3516      C3517   1.407       .  A
C3516      H3521   1.084       .  S
C3517      C3518   1.418       .  A
C3518      C3522   1.506       .  S
C3519      C3524   1.411       .  A
C3519      C3528   1.407       .  A
C3520      H3536   1.109       .  S
C3520      H3537   1.111       .  S
C3520      H3538   1.111       .  S
C3522      H3533   1.110       .  S
C3522      H3534   1.111       .  S
C3522      H3535   1.106       .  S
C3524      C3525   1.402       .  A
C3524      C3529   1.507       .  S
C3525      C3526   1.405       .  A
C3525      H3530   1.086       .  S
C3526      C3527   1.415       .  A
C3527      C3528   1.409       .  A
C3527      C3531   1.507       .  S
C3528      H3532   1.085       .  S
C3529      H3539   1.111       .  S
C3529      H3540   1.109       .  S
C3529      H3541   1.110       .  S
C3531      H3542   1.110       .  S
C3531      H3543   1.107   1_565  S
C3531      H3544   1.111       .  S
C3545      C3546   1.405       .  A
C3545      H3555   1.084       .  S
C3546      C3551   1.492       .  S
C3546      C3547   1.411       .  A
C3547      C3548   1.407       .  A
C3547      C3552   1.506       .  S
C3548      H3553   1.084       .  S
C3549      C3550   1.416       .  A
C3550      C3554   1.508       .  S
C3551      C3556   1.408       .  A
C3551      C3560   1.406       .  A
C3552      H3568   1.110       .  S
C3552      H3569   1.110       .  S
C3552      H3570   1.111       .  S
C3554      H3565   1.110       .  S
C3554      H3567   1.107       .  S
C3556      C3557   1.405       .  A
C3556      C3561   1.507       .  S
C3557      C3558   1.411       .  A
C3557      H3562   1.084       .  S
C3558      C3559   1.417       .  A
C3559      C3560   1.412       .  A
C3559      C3563   1.506       .  S
C3560      H3564   1.084       .  S
C3563      H3574   1.111       .  S
C3563      H3575   1.105       .  S
C3563      H3576   1.110       .  S
C3577      C3578   1.400       .  A
C3577      C3582   1.399       .  A
C3577      H3587   1.085       .  S
C3578      C3583   1.487       .  S
C3578      C3579   1.414       .  A
C3579      C3580   1.409       .  A
C3579      C3584   1.505       .  S
C3580      C3581   1.404       .  A
C3580      H3585   1.085       .  S
C3581      C3582   1.417       .  A
C3582      C3586   1.511       .  S
C3583      C3588   1.411       .  A
C3583      C3592   1.404       .  A
C3584      H3600   1.109       .  S
C3584      H3601   1.110       .  S
C3584      H3602   1.111       .  S
C3586      H3597   1.111       .  S
C3586      H3598   1.108       .  S
C3586      H3599   1.111       .  S
C3588      C3589   1.403       .  A
C3588      C3593   1.507       .  S
C3589      C3590   1.405       .  A
C3589      H3594   1.081       .  S
C3590      C3591   1.417       .  A
C3591      C3592   1.408       .  A
C3591      C3595   1.507       .  S
C3592      H3596   1.084       .  S
C3593      H3603   1.111       .  S
C3593      H3604   1.109       .  S
C3593      H3605   1.111       .  S
C3595      H3606   1.111       .  S
C3595      H3607   1.110       .  S
C3595      H3608   1.110       .  S
C3609      C3610   1.399       .  A
C3609      C3614   1.401       .  A
C3609      H3619   1.084       .  S
C3610      C3615   1.473       .  S
C3610      C3611   1.407       .  A
C3611      C3612   1.401       .  A
C3611      C3616   1.507       .  S
C3612      C3613   1.408       .  A
C3612      H3617   1.084       .  S
C3613      C3614   1.420       .  A
C3614      C3618   1.509       .  S
C3615      C3620   1.408       .  A
C3615      C3624   1.396       .  A
C3616      H3632   1.110       .  S
C3616      H3633   1.110       .  S
C3616      H3634   1.111       .  S
C3618      H3629   1.110       .  S
C3618      H3630   1.111       .  S
C3618      H3631   1.111       .  S
C3620      C3621   1.406       .  A
C3620      C3625   1.505       .  S
C3621      C3622   1.407       .  A
C3621      H3626   1.084       .  S
C3622      C3623   1.418       .  A
C3623      C3624   1.395       .  A
C3623      C3627   1.508       .  S
C3624      H3628   1.085       .  S
C3625      H3635   1.111       .  S
C3625      H3636   1.110       .  S
C3625      H3637   1.110       .  S
C3627      H3638   1.107       .  S
C3627      H3639   1.107       .  S
C3627      H3640   1.111       .  S
C3641      C3642   1.403       .  A
C3641      C3646   1.408       .  A
C3641      H3651   1.085       .  S
C3642      C3647   1.491       .  S
C3642      C3643   1.414       .  A
C3643      C3644   1.406       .  A
C3643      C3648   1.507       .  S
C3644      C3645   1.401       .  A
C3644      H3649   1.085       .  S
C3645      C3646   1.416       .  A
C3646      C3650   1.507       .  S
C3647      C3652   1.415       .  A
C3647      C3656   1.400       .  A
C3648      H3664   1.110       .  S
C3648      H3665   1.109       .  S
C3648      H3666   1.111       .  S
C3650      H3661   1.110       .  S
C3650      H3662   1.111       .  S
C3650      H3663   1.109       .  S
C3652      C3653   1.410       .  A
C3652      C3657   1.506       .  S
C3653      C3654   1.403       .  A
C3653      H3658   1.084       .  S
C3654      C3655   1.419       .  A
C3655      C3656   1.407       .  A
C3655      C3659   1.507       .  S
C3656      H3660   1.084       .  S
C3657      H3667   1.111       .  S
C3657      H3668   1.111       .  S
C3657      H3669   1.110       .  S
C3659      H3670   1.111       .  S
C3659      H3671   1.105       .  S
C3659      H3672   1.111       .  S
C3673      C3674   1.403       .  A
C3673      C3678   1.413       .  A
C3673      H3683   1.084       .  S
C3674      C3679   1.485       .  S
C3674      C3675   1.408       .  A
C3675      C3676   1.398       .  A
C3675      C3680   1.510       .  S
C3676      C3677   1.410       .  A
C3676      H3681   1.083       .  S
C3677      C3678   1.422       .  A
C3678      C3682   1.507       .  S
C3679      C3684   1.410       .  A
C3679      C3688   1.397       .  A
C3680      H3696   1.110       .  S
C3680      H3697   1.109       .  S
C3680      H3698   1.111       .  S
C3682      H3693   1.109       .  S
C3682      H3694   1.111       .  S
C3682      H3695   1.110       .  S
C3684      C3685   1.408       .  A
C3684      C3689   1.507       .  S
C3685      C3686   1.409       .  A
C3685      H3690   1.082       .  S
C3686      C3687   1.426       .  A
C3687      C3688   1.405       .  A
C3687      C3691   1.509       .  S
C3688      H3692   1.083       .  S
C3689      H3699   1.110       .  S
C3689      H3700   1.111       .  S
C3689      H3701   1.109       .  S
C3691      H3702   1.111       .  S
C3691      H3703   1.110       .  S
C3691      H3704   1.111       .  S
C3705      C3706   1.403       .  A
C3705      C3710   1.408       .  A
C3705      H3715   1.084       .  S
C3706      C3711   1.482       .  S
C3706      C3707   1.408       .  A
C3707      C3708   1.397       .  A
C3707      C3712   1.508       .  S
C3708      C3709   1.406       .  A
C3708      H3713   1.085       .  S
C3709      C3710   1.419       .  A
C3710      C3714   1.508       .  S
C3711      C3716   1.408       .  A
C3711      C3720   1.400       .  A
C3712      H3728   1.110       .  S
C3712      H3729   1.110       .  S
C3712      H3730   1.111       .  S
C3714      H3725   1.111       .  S
C3714      H3726   1.110       .  S
C3714      H3727   1.104       .  S
C3716      C3717   1.402       .  A
C3716      C3721   1.507       .  S
C3717      C3718   1.409       .  A
C3717      H3722   1.083       .  S
C3718      C3719   1.424       .  A
C3719      C3720   1.407       .  A
C3719      C3723   1.508       .  S
C3720      H3724   1.084       .  S
C3721      H3731   1.110       .  S
C3721      H3732   1.110       .  S
C3721      H3733   1.111       .  S
C3723      H3734   1.111       .  S
C3723      H3735   1.110       .  S
C3723      H3736   1.110       .  S
C3737      C3738   1.393       .  A
C3737      C3742   1.398       .  A
C3737      H3747   1.085       .  S
C3738      C3743   1.483   1_455  S
C3738      C3739   1.413       .  A
C3739      C3740   1.412       .  A
C3739      C3744   1.505       .  S
C3740      C3741   1.406       .  A
C3740      H3745   1.084       .  S
C3741      C3742   1.427       .  A
C3742      C3746   1.512       .  S
C3743      C3748   1.408       .  A
C3743      C3752   1.407       .  A
C3744      H3760   1.110   1_455  S
C3744      H3761   1.110   1_455  S
C3744      H3762   1.111       .  S
C3746      H3757   1.111       .  S
C3746      H3758   1.109       .  S
C3746      H3759   1.110       .  S
C3748      C3749   1.397       .  A
C3748      C3753   1.509       .  S
C3749      C3750   1.406       .  A
C3749      H3754   1.085       .  S
C3750      C3751   1.413       .  A
C3751      C3752   1.413       .  A
C3751      C3755   1.505       .  S
C3752      H3756   1.084       .  S
C3753      H3763   1.111       .  S
C3753      H3764   1.110   1_655  S
C3753      H3765   1.110       .  S
C3755      H3766   1.110       .  S
C3755      H3767   1.110       .  S
C3755      H3768   1.111       .  S
C3769      C3770   1.400       .  A
C3769      C3774   1.404       .  A
C3769      H3779   1.084       .  S
C3770      C3775   1.483       .  S
C3770      C3771   1.409       .  A
C3771      C3772   1.406       .  A
C3771      C3776   1.505       .  S
C3772      C3773   1.407       .  A
C3772      H3777   1.084       .  S
C3773      C3774   1.421       .  A
C3775      C3780   1.412       .  A
C3775      C3784   1.400       .  A
C3776      H3792   1.110       .  S
C3776      H3793   1.110       .  S
C3776      H3794   1.111       .  S
C3778      H3789   1.111       .  S
C3778      H3790   1.110       .  S
C3778      H3791   1.110       .  S
C3780      C3781   1.406       .  A
C3780      C3785   1.507       .  S
C3781      C3782   1.405       .  A
C3781      H3786   1.084       .  S
C3782      C3783   1.418       .  A
C3783      C3784   1.405       .  A
C3783      C3787   1.507       .  S
C3784      H3788   1.084       .  S
C3785      H3795   1.111       .  S
C3785      H3796   1.110       .  S
C3785      H3797   1.110       .  S
C3787      H3798   1.108       .  S
C3787      H3799   1.108       .  S
C3787      H3800   1.111       .  S
C3801      C3802   1.405       .  A
C3801      C3806   1.411       .  A
C3801      H3811   1.084       .  S
C3802      C3807   1.485       .  S
C3802      C3803   1.409       .  A
C3803      C3804   1.399       .  A
C3803      C3808   1.508       .  S
C3804      C3805   1.404       .  A
C3804      H3809   1.084       .  S
C3805      C3806   1.418       .  A
C3806      C3810   1.508       .  S
C3807      C3812   1.410       .  A
C3807      C3816   1.399       .  A
C3808      H3824   1.110       .  S
C3808      H3825   1.109       .  S
C3808      H3826   1.111       .  S
C3810      H3821   1.110       .  S
C3810      H3822   1.110       .  S
C3810      H3823   1.106       .  S
C3812      C3813   1.409       .  A
C3812      C3817   1.506       .  S
C3813      C3814   1.408       .  A
C3813      H3818   1.084       .  S
C3814      C3815   1.422       .  A
C3815      C3816   1.404       .  A
C3815      C3819   1.510       .  S
C3816      H3820   1.084       .  S
C3817      H3827   1.111       .  S
C3817      H3828   1.110       .  S
C3817      H3829   1.110       .  S
C3819      H3830   1.110       .  S
C3819      H3831   1.111       .  S
C3819      H3832   1.111       .  S
C3833      C3834   1.400       .  A
C3833      C3838   1.404       .  A
C3833      H3843   1.084       .  S
C3834      C3839   1.483       .  S
C3834      C3835   1.412       .  A
C3835      C3836   1.406       .  A
C3835      C3840   1.507       .  S
C3836      C3837   1.405       .  A
C3836      H3841   1.083       .  S
C3837      C3838   1.420       .  A
C3838      C3842   1.507       .  S
C3839      C3844   1.410       .  A
C3839      C3848   1.398       .  A
C3840      H3856   1.110       .  S
C3840      H3857   1.109       .  S
C3840      H3858   1.110       .  S
C3842      H3853   1.110       .  S
C3842      H3854   1.110       .  S
C3842      H3855   1.105       .  S
C3844      C3845   1.408       .  A
C3844      C3849   1.505       .  S
C3845      C3846   1.408       .  A
C3845      H3850   1.084       .  S
C3846      C3847   1.422       .  A
C3847      C3848   1.402       .  A
C3847      C3851   1.510       .  S
C3848      H3852   1.085       .  S
C3849      H3859   1.111       .  S
C3849      H3860   1.110       .  S
C3849      H3861   1.109       .  S
C3851      H3862   1.111       .  S
C3851      H3863   1.110       .  S
C3851      H3864   1.109       .  S
C3865      C3866   1.406       .  A
C3865      C3870   1.413       .  A
C3865      H3875   1.085       .  S
C3866      C3871   1.491       .  S
C3866      C3867   1.411       .  A
C3867      C3868   1.403       .  A
C3867      C3872   1.508       .  S
C3868      C3869   1.405       .  A
C3868      H3873   1.085       .  S
C3869      C3870   1.419       .  A
C3871      C3876   1.415       .  A
C3871      C3880   1.400       .  A
C3872      H3888   1.110       .  S
C3872      H3889   1.109       .  S
C3872      H3890   1.111       .  S
C3874      H3885   1.110       .  S
C3874      H3886   1.110       .  S
C3874      H3887   1.107       .  S
C3876      C3877   1.412       .  A
C3876      C3881   1.505       .  S
C3877      C3878   1.405       .  A
C3877      H3882   1.084       .  S
C3878      C3879   1.418       .  A
C3879      C3880   1.402       .  A
C3879      C3883   1.509       .  S
C3880      H3884   1.085       .  S
C3881      H3891   1.111       .  S
C3881      H3892   1.110       .  S
C3881      H3893   1.109       .  S
C3883      H3894   1.110       .  S
C3883      H3895   1.108       .  S
C3883      H3896   1.110       .  S
C3897      C3898   1.403       .  A
C3897      C3902   1.403       .  A
C3897      H3907   1.084       .  S
C3898      C3903   1.490       .  S
C3898      C3899   1.413       .  A
C3899      C3900   1.409       .  A
C3899      C3904   1.505       .  S
C3900      C3901   1.404       .  A
C3900      H3905   1.083       .  S
C3901      C3902   1.414       .  A
C3902      C3906   1.508       .  S
C3903      C3908   1.415       .  A
C3903      C3912   1.402       .  A
C3906      H3917   1.110       .  S
C3906      H3918   1.110       .  S
C3906      H3919   1.108       .  S
C3908      C3913   1.507   1_556  S
C3909      C3910   1.402       .  A
C3909      H3914   1.084       .  S
C3911      C3912   1.406       .  A
C3912      H3916   1.084       .  S
C3913      H3923   1.111       .  S
C3913      H3924   1.110   1_554  S
C3913      H3925   1.110       .  S
C3915      H3927   1.109       .  S
C3915      H3928   1.110       .  S
C3929      C3930   1.402       .  A
C3929      C3934   1.408       .  A
C3929      H3939   1.085       .  S
C3930      C3935   1.487       .  S
C3930      C3931   1.410       .  A
C3931      C3932   1.405       .  A
C3931      C3936   1.506       .  S
C3932      C3933   1.406       .  A
C3932      H3937   1.085       .  S
C3933      C3934   1.418       .  A
C3934      C3938   1.507       .  S
C3935      C3940   1.409       .  A
C3935      C3944   1.402       .  A
C3936      H3952   1.110       .  S
C3936      H3953   1.110       .  S
C3936      H3954   1.111       .  S
C3938      H3949   1.111       .  S
C3938      H3950   1.111       .  S
C3938      H3951   1.110       .  S
C3940      C3941   1.402       .  A
C3940      C3945   1.508       .  S
C3941      C3942   1.409       .  A
C3941      H3946   1.082       .  S
C3942      C3943   1.422       .  A
C3943      C3944   1.411       .  A
C3943      C3947   1.506       .  S
C3944      H3948   1.083       .  S
C3945      H3955   1.111       .  S
C3945      H3956   1.110       .  S
C3945      H3957   1.110       .  S
C3947      H3958   1.108       .  S
C3947      H3959   1.110       .  S
C3947      H3960   1.110       .  S
C3961      C3962   1.397       .  A
C3961      C3966   1.403       .  A
C3962      C3963   1.408       .  A
C3963      C3964   1.404       .  A
C3963      C3968   1.507       .  S
C3964      C3965   1.409       .  A
C3964      H3969   1.084       .  S
C3965      C3966   1.425       .  A
C3966      C3970   1.509       .  S
C3967      C3972   1.407       .  A
C3968      H3984   1.110       .  S
C3968      H3985   1.110   1_556  S
C3968      H3986   1.111       .  S
C3970      H3982   1.110       .  S
C3970      H3983   1.110       .  S
C3972      C3973   1.398       .  A
C3972      C3977   1.509       .  S
C3973      C3974   1.410       .  A
C3973      H3978   1.084       .  S
C3974      C3975   1.422       .  A
C3975      C3979   1.508       .  S
C3976      H3980   1.084       .  S
C3977      H3987   1.111       .  S
C3977      H3988   1.110       .  S
C3977      H3989   1.110       .  S
C3979      H3990   1.111       .  S
C3979      H3991   1.110       .  S
C3993      H4003   1.086       .  S
C3994      C3995   1.408   1_554  A
C3995      C3996   1.400       .  A
C3995      C4000   1.509       .  S
C3996      C3997   1.410       .  A
C3996      H4001   1.083       .  S
C3997      C3998   1.424       .  A
C3999      C4004   1.409       .  A
C3999      C4008   1.400       .  A
C4000      H4016   1.110       .  S
C4000      H4017   1.109   1_556  S
C4000      H4018   1.111       .  S
C4002      H4013   1.111       .  S
C4002      H4014   1.108       .  S
C4004      C4005   1.404       .  A
C4004      C4009   1.507       .  S
C4005      C4006   1.407       .  A
C4005      H4010   1.084       .  S
C4006      C4007   1.419       .  A
C4007      C4008   1.404       .  A
C4007      C4011   1.508       .  S
C4008      H4012   1.084       .  S
C4009      H4019   1.111       .  S
C4009      H4020   1.110       .  S
C4011      H4022   1.111       .  S
C4011      H4023   1.110       .  S
C4011      H4024   1.110       .  S
C4025      C4026   1.400       .  A
C4025      C4030   1.408       .  A
C4025      H4035   1.085       .  S
C4026      C4031   1.489       .  S
C4026      C4027   1.410       .  A
C4027      C4028   1.407       .  A
C4027      C4032   1.507       .  S
C4028      C4029   1.412       .  A
C4028      H4033   1.084       .  S
C4029      C4030   1.425       .  A
C4030      C4034   1.508       .  S
C4031      C4036   1.413       .  A
C4031      C4040   1.399       .  A
C4032      H4048   1.110       .  S
C4032      H4049   1.110       .  S
C4032      H4050   1.111       .  S
C4034      H4045   1.111       .  S
C4034      H4046   1.110       .  S
C4034      H4047   1.110       .  S
C4036      C4037   1.411       .  A
C4036      C4041   1.505       .  S
C4037      C4038   1.407       .  A
C4037      H4042   1.084       .  S
C4038      C4039   1.419       .  A
C4039      C4040   1.402       .  A
C4039      C4043   1.509       .  S
C4040      H4044   1.084       .  S
C4041      H4051   1.111       .  S
C4041      H4052   1.110       .  S
C4041      H4053   1.110       .  S
C4043      H4054   1.109       .  S
C4043      H4055   1.111       .  S
C4043      H4056   1.111       .  S
C4057      C4058   1.409       .  A
C4057      C4062   1.415       .  A
C4057      H4067   1.084       .  S
C4058      C4063   1.501   1_455  S
C4058      C4059   1.413       .  A
C4059      C4060   1.408       .  A
C4059      C4064   1.506       .  S
C4060      C4061   1.407       .  A
C4060      H4065   1.085       .  S
C4061      C4062   1.414       .  A
C4062      C4066   1.505       .  S
C4063      C4068   1.414       .  A
C4063      C4072   1.404       .  A
C4064      H4080   1.110       .  S
C4064      H4081   1.110       .  S
C4064      H4082   1.111       .  S
C4066      H4077   1.111       .  S
C4066      H4078   1.111       .  S
C4066      H4079   1.110       .  S
C4068      C4069   1.413       .  A
C4068      C4073   1.505   1_655  S
C4069      C4070   1.408       .  A
C4069      H4074   1.084       .  S
C4070      C4071   1.419       .  A
C4071      C4072   1.408       .  A
C4071      C4075   1.508       .  S
C4072      H4076   1.084       .  S
C4073      H4083   1.111   1_455  S
C4073      H4084   1.110       .  S
C4073      H4085   1.110       .  S
C4075      H4086   1.110       .  S
C4075      H4087   1.108       .  S
C4075      H4088   1.111       .  S
C4089      C4090   1.400       .  A
C4089      C4094   1.404       .  A
C4089      H4099   1.084       .  S
C4090      C4095   1.487       .  S
C4090      C4091   1.414       .  A
C4091      C4092   1.409       .  A
C4091      C4096   1.506       .  S
C4092      C4093   1.403       .  A
C4092      H4097   1.083       .  S
C4093      C4094   1.419       .  A
C4094      C4098   1.508       .  S
C4095      C4100   1.412       .  A
C4095      C4104   1.405       .  A
C4096      H4112   1.110       .  S
C4096      H4113   1.110       .  S
C4096      H4114   1.111       .  S
C4098      H4109   1.110       .  S
C4098      H4110   1.111       .  S
C4098      H4111   1.108       .  S
C4100      C4101   1.400       .  A
C4100      C4105   1.508       .  S
C4101      C4102   1.402       .  A
C4101      H4106   1.083       .  S
C4102      C4103   1.415       .  A
C4103      C4104   1.411       .  A
C4103      C4107   1.506       .  S
C4104      H4108   1.084       .  S
C4105      H4115   1.111       .  S
C4105      H4116   1.110       .  S
C4105      H4117   1.109       .  S
C4107      H4118   1.111       .  S
C4107      H4119   1.110       .  S
C4107      H4120   1.110       .  S
C4121      C4122   1.403       .  A
C4121      C4126   1.408       .  A
C4121      H4131   1.084       .  S
C4122      C4127   1.485       .  S
C4122      C4123   1.410       .  A
C4123      C4124   1.402       .  A
C4123      C4128   1.507       .  S
C4124      C4125   1.406       .  A
C4124      H4129   1.084       .  S
C4125      C4126   1.418       .  A
C4126      C4130   1.508       .  S
C4127      C4132   1.410       .  A
C4127      C4136   1.400       .  A
C4128      H4144   1.110       .  S
C4128      H4145   1.110       .  S
C4128      H4146   1.111       .  S
C4130      H4141   1.111       .  S
C4130      H4142   1.111       .  S
C4130      H4143   1.109       .  S
C4132      C4133   1.406       .  A
C4132      C4137   1.506       .  S
C4133      C4134   1.407       .  A
C4133      H4138   1.085       .  S
C4134      C4135   1.421       .  A
C4135      C4136   1.405       .  A
C4135      C4139   1.509       .  S
C4136      H4140   1.085       .  S
C4137      H4147   1.111       .  S
C4137      H4148   1.110       .  S
C4137      H4149   1.110       .  S
C4139      H4150   1.111       .  S
C4139      H4151   1.111       .  S
C4139      H4152   1.110       .  S
C4153      C4154   1.405       .  A
C4153      C4158   1.411       .  A
C4153      H4163   1.084       .  S
C4154      C4159   1.487       .  S
C4154      C4155   1.407       .  A
C4155      C4156   1.401       .  A
C4155      C4160   1.507       .  S
C4156      C4157   1.408       .  A
C4157      C4158   1.418       .  A
C4158      C4162   1.507       .  S
C4159      C4164   1.411       .  A
C4159      C4168   1.402       .  A
C4160      H4176   1.110       .  S
C4160      H4177   1.110       .  S
C4160      H4178   1.111       .  S
C4162      H4173   1.110       .  S
C4162      H4174   1.111       .  S
C4162      H4175   1.105       .  S
C4164      C4165   1.408       .  A
C4164      C4169   1.506       .  S
C4165      C4166   1.406       .  A
C4165      H4170   1.084       .  S
C4166      C4167   1.416       .  A
C4167      C4168   1.405       .  A
C4167      C4171   1.508       .  S
C4168      H4172   1.084       .  S
C4169      H4179   1.111       .  S
C4169      H4180   1.110       .  S
C4169      H4181   1.110       .  S
C4171      H4182   1.109       .  S
C4171      H4183   1.110       .  S
C4171      H4184   1.111       .  S
C4185      C4186   1.404       .  A
C4185      C4190   1.403       .  A
C4185      H4195   1.084       .  S
C4186      C4191   1.481       .  S
C4186      C4187   1.413       .  A
C4187      C4188   1.402       .  A
C4187      C4192   1.507       .  S
C4188      C4189   1.400       .  A
C4188      H4193   1.084       .  S
C4189      C4190   1.411       .  A
C4190      C4194   1.508       .  S
C4191      C4196   1.410       .  A
C4191      C4200   1.399       .  A
C4192      H4208   1.109       .  S
C4192      H4209   1.110       .  S
C4192      H4210   1.111       .  S
C4194      H4205   1.111       .  S
C4194      H4206   1.110       .  S
C4194      H4207   1.110       .  S
C4196      C4197   1.404       .  A
C4196      C4201   1.507       .  S
C4197      C4198   1.407       .  A
C4198      C4199   1.421       .  A
C4199      C4200   1.401       .  A
C4199      C4203   1.510       .  S
C4200      H4204   1.084       .  S
C4201      H4211   1.111       .  S
C4201      H4212   1.109       .  S
C4201      H4213   1.110       .  S
C4203      H4214   1.111       .  S
C4203      H4215   1.109       .  S
C4203      H4216   1.111       .  S
C4217      C4218   1.407       .  A
C4217      C4222   1.414       .  A
C4217      H4227   1.084       .  S
C4218      C4223   1.485       .  S
C4218      C4219   1.406       .  A
C4219      C4220   1.397       .  A
C4219      C4224   1.509       .  S
C4220      C4221   1.409       .  A
C4220      H4225   1.082       .  S
C4221      C4222   1.417       .  A
C4222      C4226   1.505       .  S
C4223      C4228   1.411       .  A
C4223      C4232   1.402       .  A
C4224      H4240   1.110       .  S
C4224      H4241   1.110       .  S
C4224      H4242   1.111       .  S
C4226      H4237   1.111       .  S
C4226      H4238   1.111       .  S
C4226      H4239   1.110       .  S
C4228      C4229   1.406       .  A
C4228      C4233   1.506       .  S
C4229      C4230   1.404       .  A
C4229      H4234   1.083       .  S
C4230      C4231   1.415       .  A
C4231      C4232   1.406       .  A
C4231      C4235   1.508       .  S
C4232      H4236   1.083       .  S
C4233      H4243   1.110       .  S
C4233      H4244   1.110       .  S
C4233      H4245   1.110       .  S
C4235      H4246   1.109       .  S
C4235      H4247   1.110       .  S
C4235      H4248   1.111       .  S
