geometry optimzed in LAMMPS
_audit_creation_date              2020-11-30 
_audit_creation_method            'lammps2cif' 
_symmetry_space_group_name_H-M    'P1' 
_symmetry_Int_Tables_number       1 
_symmetry_cell_setting            triclinic 
loop_ 
_symmetry_equiv_pos_as_xyz 
  x,y,z 
_cell_length_a                    48.54888111 
_cell_length_b                    47.69131004079553 
_cell_length_c                    35.48096933534438 
_cell_angle_alpha                 88.27253850395657 
_cell_angle_beta                  91.2617701725488 
_cell_angle_gamma                 118.40718269301881 
loop_ 
_atom_site_label 
_atom_site_type_symbol 
_atom_site_fract_x 
_atom_site_fract_y 
_atom_site_fract_z 
_atom_site_charge 
O1          O  0.16080407  0.05538181  0.75919304    -0.81700
O2          O  0.13250587  0.03014268  0.58673244    -0.66400
O3          O  0.16025383  0.03074733  0.68838125    -1.13000
C4          C  0.22924099  0.13695261  0.65353113     1.05200
O5          O  0.18090693  0.04833979  0.56700487    -0.79600
O6          O  0.23557866  0.07946729  0.61063307    -0.67200
Ni7        Ni  0.13129729  0.02092270  0.72863145     1.34900
C8          C  0.24243225  0.06998616  0.64161670     0.83900
O9          O  0.11452753  0.48639573  0.64228635    -0.80200
O10         O  0.10024739  0.48412274  0.70258254    -0.90400
C11         C  0.15134170  0.03230622  0.56112648     0.83500
O12         O  0.11233975  0.04694168  0.71189881    -0.68600
O13         O  0.22273972  0.12840053  0.61911274    -0.87900
C14         C  0.10313619  0.05099402  0.67923602     0.84300
C15         C  0.09757295  0.47172153  0.67040026     1.05900
H16         H  0.16521427  0.08641880  0.63785427     0.37700
O17         O  0.17542549  0.07332183  0.63693713    -1.10600
O18         O  0.22463088  0.06239711  0.67038117    -0.67200
Ni19       Ni  0.19276727  0.07370019  0.68581927     1.26300
O20         O  0.11227076  0.04310605  0.64961752    -0.67500
O21         O  0.22244181  0.11762781  0.68167535    -0.79700
C22         C  0.18927995  0.06216507  0.76432805     0.83700
O23         O  0.20745361  0.07114909  0.73610802    -0.66900
Ni24       Ni  0.20203415  0.08812606  0.59457450     1.27400
Ni25       Ni  0.14440505  0.03020128  0.63844067     1.26100
H26         H  0.16917174  0.01643208  0.69007535     0.38200
O27         O  0.24737459  0.99869038  0.09865884    -0.81700
O28         O  0.24603416  0.04018140  0.92949202    -0.66400
O29         O  0.22458268  0.01023693  0.03135898    -1.13000
C30         C  0.23944193  0.42526472  0.98609631     1.05200
O31         O  0.20967720  0.49263259  0.91066542    -0.79600
O32         O  0.18520532  0.43312218  0.94876259    -0.67200
Ni33       Ni  0.24984559  0.03571062  0.07216184     1.34900
C34         C  0.17047990  0.42582381  0.97973972     0.83900
O35         O  0.23473077  0.06542300  0.99043399    -0.80200
O36         O  0.25296700  0.07443369  0.05001597    -0.90400
C37         C  0.22567990  0.02288287  0.90525892     0.83500
O38         O  0.29098215  0.04697989  0.05252348    -0.68600
O39         O  0.24166500  0.43807360  0.95315892    -0.87900
C40         C  0.30218662  0.05882428  0.02004641     0.84300
C41         C  0.24594794  0.08352209  0.01875457     1.05900
H42         H  0.26405919  0.49617782  0.97716868     0.37700
O43         O  0.24197232  0.48989276  0.97653940    -1.10600
O44         O  0.18156918  0.44429834  0.00826176    -0.67200
Ni45       Ni  0.22587688  0.47074083  0.02434734     1.26300
O46         O  0.28383826  0.05326307  0.99136267    -0.67500
O47         O  0.23145046  0.43431882  0.01563865    -0.79700
C48         C  0.22178525  0.47292189  0.10262928     0.83700
O49         O  0.21001494  0.45518651  0.07429678    -0.66900
Ni50       Ni  0.22596335  0.46555520  0.93288533     1.27400
Ni51       Ni  0.23810953  0.02766357  0.98184884     1.26100
H52         H  0.20317352  0.00582707  0.03463920     0.38200
O53         O  0.10390529  0.42846177  0.42913396    -0.81700
O54         O  0.14099220  0.42008100  0.26217017    -0.66400
O55         O  0.13342410  0.44657326  0.36042874    -1.13000
C56         C  0.03353446  0.42610648  0.30852098     1.05200
O57         O  0.12864249  0.45652680  0.23938665    -0.79600
O58         O  0.09218926  0.48132913  0.27218901    -0.67200
Ni59       Ni  0.13667105  0.42427154  0.40457936     1.34900
C60         C  0.09917597  0.49671605  0.30272376     0.83900
O61         O  0.17808879  0.43496405  0.32410927    -0.80200
O62         O  0.17056719  0.41898274  0.38471445    -0.90400
C63         C  0.14332038  0.44034227  0.23639352     0.83500
O64         O  0.10694435  0.38244887  0.38823882    -0.68600
O65         O  0.04425915  0.42331778  0.27691154    -0.87900
C66         C  0.10710904  0.36878395  0.35804286     0.84300
C67         C  0.18585722  0.42477266  0.35407355     1.05900
H68         H  0.08129172  0.40277258  0.30695269     0.37700
O69         O  0.09586654  0.42529778  0.30516274    -1.10600
O70         O  0.10931211  0.48720666  0.33123210    -0.67200
Ni71       Ni  0.09259226  0.44339076  0.35057433     1.26300
O72         O  0.11916215  0.38496539  0.32764381    -0.67500
O73         O  0.05053053  0.43649178  0.33855297    -0.79700
C74         C  0.10162129  0.45390916  0.42809805     0.83700
O75         O  0.09317595  0.46251214  0.39772812    -0.66900
Ni76       Ni  0.08645563  0.43983951  0.25917347     1.27400
Ni77       Ni  0.13712443  0.43052476  0.31308994     1.26100
H78         H  0.14901876  0.46874783  0.36190922     0.38200
O79         O  0.38311159  0.33220780  0.56175817    -0.81700
O80         O  0.36161733  0.28812585  0.73522917    -0.66400
O81         O  0.37008102  0.32810965  0.63864657    -1.13000
C82         C  0.47778523  0.37152184  0.67131143     1.05200
O83         O  0.39281239  0.33458523  0.76037679    -0.79600
O84         O  0.43244788  0.38862570  0.72179420    -0.67200
Ni85       Ni  0.35293038  0.30156464  0.59621602     1.34900
C86         C  0.42433239  0.39995549  0.69347791     0.83900
O87         O  0.32099468  0.28588048  0.68274515    -0.80200
O88         O  0.31917008  0.26876344  0.62456895    -0.90400
C89         C  0.36899546  0.30701112  0.76253742     0.83500
O90         O  0.37899836  0.28216092  0.60598077    -0.68600
O91         O  0.46907790  0.36178489  0.70516728    -0.87900
C92         C  0.37859582  0.26638702  0.63571110     0.84300
C93         C  0.30688677  0.26670954  0.65655550     1.05900
H94         H  0.41650989  0.31138197  0.68318042     0.37700
O95         O  0.40923945  0.32671125  0.68710804    -1.10600
O96         O  0.41381614  0.38520722  0.66307714    -0.67200
Ni97       Ni  0.41467165  0.34969707  0.64115821     1.26300
O98         O  0.36676177  0.26921552  0.66637722    -0.67500
O99         O  0.45907164  0.36987875  0.64475957    -0.79700
C100        C  0.40356858  0.36128778  0.56492890     0.83700
O101        O  0.41832048  0.37259022  0.59527044    -0.66900
Ni102      Ni  0.43047593  0.34790341  0.73133769     1.27400
Ni103      Ni  0.36515461  0.30633085  0.68597493     1.26100
H104        H  0.36170125  0.34280463  0.63978617     0.38200
O105        O  0.31218860  0.28227805  0.09818000    -0.81700
O106        O  0.30245849  0.25807331  0.92148158    -0.66400
O107        O  0.30826462  0.28943126  0.02029473    -1.13000
C108        C  0.19913767  0.23280020  0.01020868     1.05200
O109        O  0.26990539  0.27536746  0.90167150    -0.79600
O110        O  0.24896012  0.30014864  0.95364190    -0.67200
Ni111      Ni  0.33357169  0.27959228  0.05468158     1.34900
C112        C  0.25443387  0.31322677  0.98539417     0.83900
O113        O  0.34954646  0.29749367  0.96337556    -0.80200
O114        O  0.36040588  0.27862043  0.01622252    -0.90400
C115        C  0.29180349  0.26870897  0.89542590     0.83500
O116        O  0.30494519  0.23513096  0.04989128    -0.68600
O117        O  0.20377740  0.24043972  0.97515342    -0.87900
C118        C  0.29899610  0.22042619  0.01896758     0.84300
C119        C  0.36770688  0.29133382  0.98340309     1.05900
H120        H  0.25564104  0.22835914  0.97876904     0.37700
O121        O  0.26283558  0.25104925  0.97809928    -1.10600
O122        O  0.25857680  0.30071383  0.01555522    -0.67200
Ni123      Ni  0.26418413  0.26447875  0.02859776     1.26300
O124        O  0.30779745  0.23562294  0.98752367    -0.67500
O125        O  0.22059275  0.23890053  0.03464278    -0.79700
C126        C  0.28729555  0.28382671  0.10439932     0.83700
O127        O  0.26633742  0.27813688  0.07935076    -0.66900
Ni128      Ni  0.23795246  0.25784596  0.94049633     1.24700
Ni129      Ni  0.30602231  0.27382982  0.97060984     1.26100
H130        H  0.31503152  0.31204843  0.01952377     0.38200
O131        O  0.34041701  0.38553185  0.44073524    -0.81700
O132        O  0.29112471  0.34192206  0.27308855    -0.66400
O133        O  0.33281880  0.36083202  0.36864176    -1.13000
C134        C  0.38195133  0.46415538  0.31182400     1.05200
O135        O  0.33750905  0.36479925  0.24567853    -0.79600
O136        O  0.39396327  0.40811300  0.27698693    -0.67200
Ni137      Ni  0.30768072  0.35206436  0.41244563     1.34900
C138        C  0.40530380  0.40424115  0.30809854     0.83900
O139        O  0.28662330  0.30738137  0.33514357    -0.80200
O140        O  0.27241897  0.31615407  0.39084813    -0.90400
C141        C  0.30832915  0.34497773  0.24519411     0.83500
O142        O  0.29229759  0.38026659  0.39486571    -0.68600
O143        O  0.37206396  0.45075713  0.28004954    -0.87900
C144        C  0.27602428  0.37670720  0.36510221     0.84300
C145        C  0.26804128  0.29863546  0.36264821     1.05900
H146        H  0.32100490  0.40489351  0.31133013     0.37700
O147        O  0.33423905  0.39488665  0.31097887    -1.10600
O148        O  0.39070420  0.39815858  0.33892380    -0.67200
Ni149      Ni  0.35749981  0.40508187  0.35646141     1.26300
O150        O  0.27694164  0.36017488  0.33776255    -0.67500
O151        O  0.38008519  0.44904514  0.34275230    -0.79700
C152        C  0.36957711  0.40185449  0.43468395     0.83700
O153        O  0.38054844  0.41308971  0.40243180    -0.66900
Ni154      Ni  0.35498957  0.40766632  0.26421236     1.27400
Ni155      Ni  0.31031156  0.35100289  0.32194194     1.26100
H156        H  0.34555477  0.35017946  0.37078986     0.38200
O157        O  0.42513464  0.08772244  0.56712101    -0.81700
O158        O  0.43544521  0.13833447  0.73170962    -0.66400
O159        O  0.45031460  0.12339051  0.63038182    -1.13000
C160        C  0.43865291  0.02685202  0.69006528     1.05200
O161        O  0.47380341  0.12766660  0.74862434    -0.79600
O162        O  0.49516915  0.08890013  0.71545805    -0.67200
Ni163      Ni  0.42377108  0.12325905  0.58956935     1.34900
C164        C  0.00725149  0.09443834  0.68283314     0.83900
O165        O  0.44183752  0.17090300  0.66571597    -0.80200
O166        O  0.42050490  0.15928546  0.60791983    -0.90400
C167        C  0.45790963  0.14216750  0.75422232     0.83500
O168        O  0.38452696  0.09487297  0.61284413    -0.68600
O169        O  0.43843537  0.03950183  0.72134951    -0.87900
C170        C  0.37441975  0.09724339  0.64482030     0.84300
C171        C  0.42847465  0.17648912  0.63719190     1.05900
H172        H  0.41444876  0.07439518  0.69250635     0.37700
O173        O  0.43644038  0.08948420  0.69023389    -1.10600
O174        O  0.49415412  0.10107328  0.65467815    -0.67200
Ni175      Ni  0.44925527  0.08294774  0.64272903     1.26300
O176        O  0.39350760  0.11092233  0.67231273    -0.67500
O177        O  0.44483843  0.04176508  0.65792890    -0.79700
C178        C  0.45007674  0.08560204  0.56361464     0.83700
O179        O  0.46234117  0.07978389  0.59280774    -0.66900
Ni180      Ni  0.45583041  0.08351917  0.73415201     1.27400
Ni181      Ni  0.43964229  0.13049167  0.67947628     1.26100
H182        H  0.47159354  0.13929070  0.62493235     0.38200
O183        O  0.02099687  0.23224090  0.90128186    -0.81700
O184        O  0.03889508  0.23957355  0.07752040    -0.66400
O185        O  0.01895054  0.21018747  0.97671933    -1.13000
C186        C  0.44571531  0.24505268  0.99380001     1.05200
O187        O  0.49024931  0.20695367  0.09394289    -0.79600
O188        O  0.43751714  0.18283011  0.04565763    -0.67200
Ni189      Ni  0.05006660  0.23004043  0.93850691     1.34900
C190        C  0.43297763  0.16521027  0.01743210     0.83900
O191        O  0.06296899  0.21546126  0.03046532    -0.80200
O192        O  0.08077742  0.22654199  0.97094276    -0.90400
C193        C  0.01961114  0.22129210  0.10207510     0.83500
O194        O  0.06603530  0.27480889  0.95087737    -0.68600
O195        O  0.44974234  0.24364697  0.02950827    -0.87900
C196        C  0.07297568  0.28825444  0.98289794     0.84300
C197        C  0.08201144  0.21803120  0.00521946     1.05900
H198        H  0.00701094  0.25910312  0.01702471     0.37700
O199        O  0.49799989  0.23624238  0.02054534    -1.10600
O200        O  0.45255811  0.17461978  0.99003387    -0.67200
Ni201      Ni  0.48401765  0.21785437  0.97240090     1.26300
O202        O  0.06195285  0.27153490  0.01322720    -0.67500
O203        O  0.45231033  0.23010401  0.96941079    -0.79700
C204        C  0.49263010  0.21078246  0.89559438     0.83700
O205        O  0.47347536  0.20047375  0.92284071    -0.66900
Ni206      Ni  0.46940637  0.22464670  0.06047988     1.27400
Ni207      Ni  0.03104387  0.22677450  0.02635597     1.26100
H208        H  0.01185646  0.18749770  0.97749885     0.38200
O209        O  0.06970670  0.16249804  0.23747667    -0.81700
O210        O  0.02572951  0.11527746  0.40168214    -0.66400
O211        O  0.03841407  0.15348680  0.30310702    -1.13000
C212        C  0.13780325  0.21804509  0.35673633     1.05200
O213        O  0.04020299  0.16304514  0.42420946    -0.79600
O214        O  0.07967713  0.22258130  0.39047714    -0.67200
Ni215      Ni  0.03309871  0.12873406  0.25969675     1.34900
C216        C  0.07276553  0.23231460  0.35972477     0.83900
O217        O  0.49026225  0.10303052  0.33944448    -0.80200
O218        O  0.49518743  0.09411671  0.27886097    -0.90400
C219        C  0.02416227  0.13266588  0.42716599     0.83500
O220        O  0.05731983  0.10852762  0.27717402    -0.68600
O221        O  0.12517783  0.20611883  0.38868230    -0.87900
C222        C  0.05717068  0.09500907  0.30871284     0.84300
C223        C  0.47931760  0.08826403  0.30897542     1.05900
H224        H  0.08689954  0.15267074  0.35934250     0.37700
O225        O  0.07395322  0.16300243  0.35976819    -1.10600
O226        O  0.06538460  0.21540876  0.33035949    -0.67200
Ni227      Ni  0.08003230  0.18632755  0.31349340     1.26300
O228        O  0.04631354  0.10078394  0.33851260    -0.67500
O229        O  0.12222874  0.21632017  0.32648321    -0.79700
C230        C  0.07329222  0.19061182  0.23581719     0.83700
O231        O  0.08289776  0.20735647  0.26513139    -0.66900
Ni232      Ni  0.08290447  0.18501201  0.40540626     1.27400
Ni233      Ni  0.03216069  0.13224168  0.35095164     1.26100
H234        H  0.02445686  0.16267345  0.30073448     0.38200
C235        C  0.02774816  0.18435015  0.19686447    -0.10000
C236        C  0.06023623  0.20078197  0.20306507     0.06200
C237        C  0.07874982  0.22588533  0.17808750    -0.03700
C238        C  0.06496464  0.23255066  0.14612268    -0.08200
C239        C  0.03235832  0.21524363  0.13878690     0.05300
C240        C  0.01366895  0.19176328  0.16590049    -0.03200
Br241      Br  0.46883492  0.16914518  0.16391952    -0.02900
H242        H  0.01305782  0.16566355  0.21665008     0.09200
H243        H  0.08008978  0.25125162  0.12667405     0.07300
Br244      Br  0.12301360  0.25085166  0.18572795    -0.03300
C245        C  0.44325499  0.16314139  0.81056945    -0.10000
C246        C  0.46658076  0.16380546  0.78718875     0.06200
C247        C  0.49822940  0.18318669  0.79777550    -0.03700
C248        C  0.00588619  0.19969238  0.83175030    -0.08200
C249        C  0.48264846  0.19706596  0.85686817     0.05300
C250        C  0.45088922  0.17925943  0.84510704    -0.03200
Br251      Br  0.41662619  0.17572525  0.87457886    -0.02900
H252        H  0.41884602  0.14884863  0.80278420     0.09200
H253        H  0.03039472  0.21346593  0.83936839     0.07300
Br254      Br  0.03236575  0.18896361  0.76635602    -0.03300
C255        C  0.46231625  0.11493592  0.50166648    -0.10000
C256        C  0.46611566  0.09321774  0.52621026     0.06200
C257        C  0.98728940  0.08230948  0.51573792    -0.03700
C258        C  0.00518614  0.09447676  0.48271106    -0.08200
C259        C  0.00275983  0.11779355  0.45977181     0.05300
C260        C  0.48033429  0.12721753  0.46899844    -0.03200
Br261      Br  0.47273720  0.15620765  0.43731994    -0.02900
H262        H  0.44601022  0.12346763  0.50858598     0.09200
H263        H  0.02174962  0.08635155  0.47551600     0.07300
Br264      Br  0.99222204  0.05030261  0.54462077    -0.03300
C265        C  0.22212582  0.26510535  0.32436362    -0.10000
C266        C  0.23763473  0.27035816  0.35927929     0.06200
C267        C  0.22091257  0.25421748  0.39169219    -0.03700
C268        C  0.18858573  0.23654169  0.38968131    -0.08200
C269        C  0.17230390  0.23434786  0.35560660     0.05300
C270        C  0.18963651  0.24730142  0.32211306    -0.03200
Br271      Br  0.17150716  0.24347175  0.27253221    -0.02900
H272        H  0.23497377  0.27718675  0.29911509     0.09200
H273        H  0.17623067  0.22549792  0.41552643     0.07300
Br274      Br  0.24078545  0.25695363  0.43992130    -0.03300
C275        C  0.40773324  0.01581654  0.27734236    -0.10000
C276        C  0.39858378  0.49914455  0.31204954     0.06200
C277        C  0.40946834  0.51623051  0.34576539    -0.03700
C278        C  0.43436130  0.04698504  0.34419074    -0.08200
C279        C  0.44756398  0.06133076  0.30939826     0.05300
C280        C  0.43176276  0.04700911  0.27581942    -0.03200
Br281      Br  0.44212019  0.06803582  0.22709814    -0.02900
H282        H  0.39772077  0.50395701  0.25107811     0.09200
H283        H  0.94476219  0.05864034  0.37047229     0.07300
Br284      Br  0.39236792  0.49929455  0.39475953    -0.03300
C285        C  0.29317859  0.28214783  0.17405862    -0.10000
C286        C  0.28417616  0.29426958  0.14225638     0.06200
C287        C  0.27813175  0.32017650  0.14674025    -0.03700
C288        C  0.28390167  0.33515034  0.18158907    -0.08200
C289        C  0.29522279  0.32444839  0.21235456     0.05300
C290        C  0.29842645  0.29686199  0.20897979    -0.03200
Br291      Br  0.31186728  0.27984227  0.25083790    -0.02900
H292        H  0.29767549  0.26212694  0.17127198     0.09200
H293        H  0.28139437  0.35641877  0.18401717     0.07300
Br294      Br  0.26624175  0.33901409  0.10539043    -0.03300
C295        C  0.42268600  0.30920900  0.99091108    -0.10000
C296        C  0.39628816  0.29447240  0.96761812     0.06200
C297        C  0.39360633  0.27053680  0.94325273    -0.03700
C298        C  0.41198179  0.25583323  0.94999375    -0.08200
C299        C  0.43328242  0.26569324  0.98003732     0.05300
C300        C  0.44123522  0.29467874  0.99768579    -0.03200
Br301      Br  0.47522916  0.31402048  0.03323330    -0.02900
H302        H  0.42573976  0.32868871  0.00851469     0.09200
H303        H  0.40735520  0.23481403  0.93439513     0.07300
Br304      Br  0.36113770  0.25204734  0.90637883    -0.03300
C305        C  0.12734094  0.22928482  0.04596820    -0.10000
C306        C  0.10760487  0.21201440  0.01630344     0.06200
C307        C  0.11511990  0.19269706  0.99435257    -0.03700
C308        C  0.14474732  0.19538967  0.99772413    -0.08200
C309        C  0.16678263  0.21759311  0.02225533     0.05300
C310        C  0.15716968  0.23210774  0.04928353    -0.03200
Br311      Br  0.18507962  0.26026105  0.08659846    -0.02900
H312        H  0.12090090  0.24320463  0.06391365     0.09200
H313        H  0.15182994  0.18325656  0.97784276     0.07300
Br314      Br  0.08691693  0.16482729  0.95708649    -0.03300
C315        C  0.33044327  0.26489114  0.80549944    -0.10000
C316        C  0.34852424  0.29750599  0.79617871     0.06200
C317        C  0.34578116  0.32012409  0.81865095    -0.03700
C318        C  0.32552346  0.30984169  0.84942757    -0.08200
C319        C  0.30826182  0.27743429  0.85913125     0.05300
C320        C  0.31080687  0.25481508  0.83694577    -0.03200
Br321      Br  0.28827591  0.21000260  0.84885268    -0.02900
H322        H  0.33206583  0.24712200  0.78874127     0.09200
H323        H  0.32412693  0.32741468  0.86682243     0.07300
Br324      Br  0.36830969  0.36541011  0.80919158    -0.03300
C325        C  0.45181481  0.48623547  0.66798706    -0.10000
C326        C  0.43355816  0.49373098  0.69150254     0.06200
C327        C  0.41264106  0.47015932  0.71695029    -0.03700
C328        C  0.41051086  0.43978875  0.71838231    -0.08200
C329        C  0.42863368  0.43248223  0.69444578     0.05300
C330        C  0.44945630  0.45599620  0.66923305    -0.03200
Br331      Br  0.47601402  0.44846247  0.63653186    -0.02900
H332        H  0.46845811  0.50417404  0.64889526     0.09200
H333        H  0.39401525  0.42158337  0.73732631     0.07300
Br334      Br  0.38480532  0.47711255  0.74826518    -0.03300
C335        C  0.41224272  0.21299801  0.60318315    -0.10000
C336        C  0.41955102  0.20255747  0.63772132     0.06200
C337        C  0.41382038  0.21409700  0.67136685    -0.03700
C338        C  0.40059540  0.23466226  0.66978204    -0.08200
C339        C  0.39266587  0.24447768  0.63527156     0.05300
C340        C  0.39898133  0.23347894  0.60157182    -0.03200
Br341      Br  0.38863793  0.24350674  0.55208379    -0.02900
H342        H  0.41608600  0.20446067  0.57689230     0.09200
H343        H  0.39631697  0.24289498  0.69604089     0.07300
Br344      Br  0.42151227  0.20167736  0.72080305    -0.03300
C345        C  0.41483284  0.37512252  0.49753605    -0.10000
C346        C  0.40767626  0.38265738  0.53252892     0.06200
C347        C  0.39557173  0.40424236  0.53412730    -0.03700
C348        C  0.38692540  0.41451562  0.50078699    -0.08200
C349        C  0.39075927  0.40396370  0.46585136     0.05300
C350        C  0.40676023  0.38587352  0.46419409    -0.03200
Br351      Br  0.41213588  0.36942590  0.41774247    -0.02900
H352        H  0.42380702  0.35827294  0.49612437     0.09200
H353        H  0.37426251  0.42799631  0.50237040     0.07300
Br354      Br  0.38460970  0.41525494  0.58106911    -0.03300
C355        C  0.22624066  0.41634289  0.38948865    -0.10000
C356        C  0.21256077  0.41733476  0.35443093     0.06200
C357        C  0.22149949  0.40647814  0.32261118    -0.03700
C358        C  0.24259421  0.39414241  0.32669620    -0.08200
C359        C  0.25512847  0.39181732  0.36213126     0.05300
C360        C  0.24680379  0.40354778  0.39379501    -0.03200
Br361      Br  0.25991637  0.40074157  0.44472488    -0.02900
H362        H  0.21980134  0.42436506  0.41443754     0.09200
H363        H  0.24861562  0.38556474  0.30190432     0.07300
Br364      Br  0.20407596  0.40508578  0.27326987    -0.03300
C365        C  0.49130894  0.43589227  0.33319431    -0.10000
C366        C  0.99997239  0.41826691  0.30971882     0.06200
C367        C  0.47675982  0.39516737  0.28625238    -0.03700
C368        C  0.44601811  0.39071813  0.28609697    -0.08200
C369        C  0.43760925  0.40860258  0.30928567     0.05300
C370        C  0.46065127  0.43144075  0.33294724    -0.03200
Br371      Br  0.45245643  0.45943837  0.36299945    -0.02900
H372        H  0.00870106  0.45405951  0.35091590     0.09200
H373        H  0.42852889  0.37304582  0.26794696     0.07300
Br374      Br  0.48485290  0.36793837  0.25467304    -0.03300
C375        C  0.06936209  0.02481025  0.27928221    -0.10000
C376        C  0.09171431  0.02442147  0.30515744     0.06200
C377        C  0.10225671  0.04766442  0.33378830    -0.03700
C378        C  0.09078751  0.07018311  0.33542338    -0.08200
C379        C  0.06853271  0.07027580  0.30905088     0.05300
C380        C  0.05776599  0.04671771  0.28118591    -0.03200
Br381      Br  0.02478334  0.04128103  0.24638808    -0.02900
H382        H  0.05957020  0.00690734  0.25780787     0.09200
H383        H  0.09965009  0.08794314  0.35711108     0.07300
Br384      Br  0.13327820  0.55085239  0.36996209    -0.03300
C385        C  0.08491807  0.31552395  0.32537162    -0.10000
C386        C  0.09408624  0.33286133  0.35897918     0.06200
C387        C  0.09254078  0.31547937  0.39283946    -0.03700
C388        C  0.08350540  0.28275362  0.39218107    -0.08200
C389        C  0.07572729  0.26556814  0.35849661     0.05300
C390        C  0.07551859  0.28248413  0.32482442    -0.03200
Br391      Br  0.06326382  0.26272497  0.27666538    -0.02900
H392        H  0.08540874  0.32784776  0.29904151     0.09200
H393        H  0.08388283  0.27095105  0.41859560     0.07300
Br394      Br  0.10508866  0.33474689  0.44140142    -0.03300
C395        C  0.18696851  0.43256357  0.15136575    -0.10000
C396        C  0.20464335  0.46465173  0.13936382     0.06200
C397        C  0.20272389  0.48826676  0.16074340    -0.03700
C398        C  0.18326999  0.47962359  0.19235873    -0.08200
C399        C  0.16523230  0.44764866  0.20404941     0.05300
C400        C  0.16766744  0.42397550  0.18345067    -0.03200
Br401      Br  0.14309374  0.37942637  0.19565881    -0.02900
H402        H  0.18761783  0.41396869  0.13521815     0.09200
H403        H  0.18177441  0.49819541  0.20760623     0.07300
Br404      Br  0.22353602  0.03274280  0.14670175    -0.03300
C405        C  0.13400503  0.37424825  0.01600474    -0.10000
C406        C  0.14104078  0.39287678  0.98231680     0.06200
C407        C  0.12345286  0.37676110  0.94982980    -0.03700
C408        C  0.10125526  0.34377084  0.95121158    -0.08200
C409        C  0.09519889  0.32466152  0.98442487     0.05300
C410        C  0.11206500  0.34099258  0.01728061    -0.03200
Br411      Br  0.10892870  0.31898129  0.06446881    -0.02900
H412        H  0.14716441  0.38514228  0.04132761     0.09200
H413        H  0.08896651  0.33281711  0.92545000     0.07300
Br414      Br  0.12849138  0.39834895  0.90183092    -0.03300
C415        C  0.35592427  0.09200342  0.05011781    -0.10000
C416        C  0.33764032  0.08184285  0.01684041     0.06200
C417        C  0.35364266  0.09626803  0.98256100    -0.03700
C418        C  0.38509503  0.12176368  0.98276657    -0.08200
C419        C  0.40233130  0.13344419  0.01657895     0.05300
C420        C  0.38738428  0.11664177  0.05016565    -0.03200
Br421      Br  0.40911343  0.12525913  0.09754623    -0.02900
H422        H  0.34551427  0.08114523  0.07694723     0.09200
H423        H  0.39569986  0.13323934  0.95624087     0.07300
Br424      Br  0.33439703  0.08196979  0.93420147    -0.03300
C425        C  0.25095570  0.13245672  0.04767409    -0.10000
C426        C  0.25385000  0.11752905  0.01556492     0.06200
C427        C  0.26975942  0.13661815  0.98398634    -0.03700
C428        C  0.28359075  0.16980642  0.98574315    -0.08200
C429        C  0.28230269  0.18494742  0.01862251     0.05300
C430        C  0.26471765  0.16570118  0.04946533    -0.03200
Br431      Br  0.25807349  0.18257524  0.09488598    -0.02900
H432        H  0.23870933  0.11811822  0.07213889     0.09200
H433        H  0.29650341  0.18386172  0.96146133     0.07300
Br434      Br  0.27673364  0.11948247  0.93907406    -0.03300
C435        C  0.26492169  0.39526995  0.96203731    -0.10000
C436        C  0.24594892  0.39808731  0.98945720     0.06200
C437        C  0.23202992  0.37370077  0.01740122    -0.03700
C438        C  0.23621060  0.34679373  0.01617316    -0.08200
C439        C  0.25407734  0.34359889  0.98785009     0.05300
C440        C  0.26902106  0.36832390  0.96100141    -0.03200
Br441      Br  0.29549483  0.36672099  0.92263000    -0.02900
H442        H  0.27628157  0.41390774  0.94079526     0.09200
H443        H  0.22418518  0.32750496  0.03648452     0.07300
Br444      Br  0.20503972  0.37364481  0.05632222    -0.03300
C445        C  0.23014454  0.05869705  0.80645660    -0.10000
C446        C  0.20074501  0.05789117  0.80280999     0.06200
C447        C  0.18166766  0.04930435  0.83540430    -0.03700
C448        C  0.19059414  0.03876027  0.86862189    -0.08200
C449        C  0.21898750  0.03778747  0.87121323     0.05300
C450        C  0.23940484  0.04917568  0.84027502    -0.03200
Br451      Br  0.27940934  0.05031560  0.84233151    -0.02900
H452        H  0.24563200  0.06560727  0.78248121     0.09200
H453        H  0.17505933  0.03098713  0.89261505     0.07300
Br454      Br  0.14328959  0.05166150  0.83741231    -0.03300
C455        C  0.29270859  0.08364008  0.67740924    -0.10000
C456        C  0.27395279  0.07068035  0.64504565     0.06200
C457        C  0.28784805  0.06342448  0.61483192    -0.03700
C458        C  0.31955106  0.07029272  0.61674725    -0.08200
C459        C  0.33916729  0.08523480  0.64812199     0.05300
C460        C  0.32472050  0.09123000  0.67910336    -0.03200
Br461      Br  0.34732473  0.11186134  0.72383599    -0.02900
H462        H  0.28292681  0.08984989  0.70089951     0.09200
H463        H  0.32916835  0.06485243  0.59249347     0.07300
Br464      Br  0.26467391  0.04407395  0.56984354    -0.03300
C465        C  0.03610722  0.07035564  0.64821162    -0.10000
C466        C  0.03570926  0.08933771  0.67781245     0.06200
C467        C  0.05921947  0.09717376  0.70601994    -0.03700
C468        C  0.08105534  0.08538390  0.70511845    -0.08200
C469        C  0.08078078  0.06533735  0.67639239     0.05300
C470        C  0.05793589  0.05840045  0.64729922    -0.03200
Br471      Br  0.05296322  0.02998476  0.60744410    -0.02900
H472        H  0.01795618  0.06297666  0.62675513     0.09200
H473        H  0.09826221  0.09171492  0.72764337     0.07300
Br474      Br  0.56275815  0.12414906  0.74682230    -0.03300
C475        C  0.05449031  0.43247692  0.63171024    -0.10000
C476        C  0.07206585  0.43943522  0.66521737     0.06200
C477        C  0.06198937  0.41702684  0.69526583    -0.03700
C478        C  0.03195416  0.39144426  0.69428786    -0.08200
C479        C  0.51170438  0.38829004  0.66387965     0.05300
C480        C  0.02438988  0.40665550  0.63052106    -0.03200
Br481      Br  0.50190186  0.40027422  0.58346951    -0.02900
H482        H  0.06292475  0.44868892  0.60755411     0.09200
H483        H  0.02356175  0.37602233  0.71909679     0.07300
Br484      Br  0.08715444  0.42140772  0.73949756    -0.03300
C485        C  0.27950234  0.21836430  0.69483471    -0.10000
C486        C  0.27827157  0.23746364  0.66474649     0.06200
C487        C  0.25597401  0.22372231  0.63594859    -0.03700
C488        C  0.23930342  0.19079362  0.63386811    -0.08200
C489        C  0.24414052  0.17125554  0.66070605     0.05300
C490        C  0.26263881  0.18522106  0.69310385    -0.03200
Br491      Br  0.26915592  0.16137051  0.73378701    -0.02900
H492        H  0.29649108  0.22895552  0.71740519     0.09200
H493        H  0.22350598  0.18052567  0.61017067     0.07300
Br494      Br  0.25026482  0.24907620  0.59663146    -0.03300
C495        C  0.10672138  0.48959186  0.52436906    -0.10000
C496        C  0.13834217  0.01398125  0.52549604     0.06200
C497        C  0.15653196  0.01927663  0.49270658    -0.03700
C498        C  0.14354093  0.49997546  0.46107091    -0.08200
C499        C  0.11253851  0.47524878  0.46086653     0.05300
C500        C  0.09394964  0.47037991  0.49265028    -0.03200
Br501      Br  0.05114040  0.43762761  0.49373229    -0.02900
H502        H  0.09190752  0.48497314  0.54864054     0.09200
H503        H  0.15802634  0.50402424  0.43657119     0.07300
Br504      Br  0.19909095  0.05248491  0.48812895    -0.03300
O505        O  0.16070067  0.55520000  0.75913741    -0.81700
O506        O  0.13244553  0.52988815  0.58670973    -0.66400
O507        O  0.16019230  0.53054175  0.68836586    -1.13000
C508        C  0.22913210  0.63677044  0.65352803     1.05200
O509        O  0.18085922  0.54817146  0.56698537    -0.79600
O510        O  0.23550692  0.57933183  0.61062390    -0.67200
Ni511      Ni  0.13122303  0.52071596  0.72859749     1.34900
C512        C  0.24237660  0.56985012  0.64159550     0.83900
O513        O  0.11454752  0.98665168  0.64229573    -0.80200
O514        O  0.10029842  0.98434004  0.70261259    -0.90400
C515        C  0.15129917  0.53210895  0.56109797     0.83500
O516        O  0.11226085  0.54671346  0.71183727    -0.68600
O517        O  0.22261595  0.62822023  0.61911196    -0.87900
C518        C  0.10303097  0.55072062  0.67917555     0.84300
C519        C  0.09759245  0.97196891  0.67040327     1.05900
H520        H  0.16509203  0.58618070  0.63784074     0.37700
O521        O  0.17532871  0.57310787  0.63692084    -1.10600
O522        O  0.22457796  0.56224385  0.67036744    -0.67200
Ni523      Ni  0.19267991  0.57350693  0.68580541     1.26300
O524        O  0.11215782  0.54281209  0.64956653    -0.67500
O525        O  0.22232982  0.61744452  0.68167095    -0.79700
C526        C  0.18917045  0.56198396  0.76430537     0.83700
O527        O  0.20736106  0.57097208  0.73610121    -0.66900
Ni528      Ni  0.20194118  0.58795119  0.59456534     1.27400
Ni529      Ni  0.14434342  0.52996669  0.63842017     1.26100
H530        H  0.16912590  0.51624052  0.69007804     0.38200
O531        O  0.24739484  0.49871839  0.09857180    -0.81700
O532        O  0.24611779  0.54012437  0.92937388    -0.66400
O533        O  0.22464463  0.51023294  0.03124000    -1.13000
C534        C  0.23935211  0.92528161  0.98613350     1.05200
O535        O  0.20962690  0.99270572  0.91069888    -0.79600
O536        O  0.18510970  0.93318416  0.94880208    -0.67200
Ni537      Ni  0.24984983  0.53572473  0.07205811     1.34900
C538        C  0.17039958  0.92585327  0.97979194     0.83900
O539        O  0.23479732  0.56540403  0.99026595    -0.80200
O540        O  0.25294509  0.57442921  0.04988279    -0.90400
C541        C  0.22571672  0.52280712  0.90519300     0.83500
O542        O  0.29102098  0.54704738  0.05249243    -0.68600
O543        O  0.24155276  0.93809809  0.95320529    -0.87900
C544        C  0.30225445  0.55886220  0.02001619     0.84300
C545        C  0.24596220  0.58350760  0.01859012     1.05900
H546        H  0.26396349  0.99619315  0.97723707     0.37700
O547        O  0.24187705  0.98990984  0.97661514    -1.10600
O548        O  0.18148994  0.94430286  0.00833804    -0.67200
Ni549      Ni  0.22579590  0.97074118  0.02443197     1.26300
O550        O  0.28392940  0.55326311  0.99129522    -0.67500
O551        O  0.23136311  0.93431792  0.01569276    -0.79700
C552        C  0.22175484  0.97291018  0.10274182     0.83700
O553        O  0.20994759  0.95518272  0.07440444    -0.66900
Ni554      Ni  0.22587723  0.96560117  0.93293850     1.27400
Ni555      Ni  0.23819678  0.52764622  0.98173623     1.26100
H556        H  0.20322851  0.50581205  0.03448548     0.38200
O557        O  0.10378003  0.92846770  0.42929732    -0.81700
O558        O  0.14095041  0.92011389  0.26233377    -0.66400
O559        O  0.13332974  0.94655315  0.36060188    -1.13000
C560        C  0.03353194  0.92628687  0.30861474     1.05200
O561        O  0.12866043  0.95659415  0.23953137    -0.79600
O562        O  0.09228745  0.98146601  0.27234963    -0.67200
Ni563      Ni  0.13648771  0.92417764  0.40472596     1.34900
C564        C  0.09928328  0.99684025  0.30289354     0.83900
O565        O  0.17799052  0.93494211  0.32430413    -0.80200
O566        O  0.17032213  0.91880642  0.38484232    -0.90400
C567        C  0.14332531  0.94039431  0.23656054     0.83500
O568        O  0.10671269  0.88238042  0.38832582    -0.68600
O569        O  0.04426352  0.92349419  0.27701020    -0.87900
C570        C  0.10695827  0.86874647  0.35813404     0.84300
C571        C  0.18566965  0.92463923  0.35424059     1.05900
H572        H  0.08121799  0.90283351  0.30706029     0.37700
O573        O  0.09581204  0.92535465  0.30529174    -1.10600
O574        O  0.10935474  0.98727664  0.33140982    -0.67200
Ni575      Ni  0.09253919  0.94344755  0.35071236     1.26300
O576        O  0.11906373  0.88496886  0.32777307    -0.67500
O577        O  0.05051264  0.93664314  0.33866020    -0.79700
C578        C  0.10155361  0.95394965  0.42824347     0.83700
O579        O  0.09313171  0.96256736  0.39786705    -0.66900
Ni580      Ni  0.08646646  0.93995601  0.25930078     1.27400
Ni581      Ni  0.13704979  0.93053744  0.31325279     1.26100
H582        H  0.14894810  0.96871601  0.36212397     0.38200
O583        O  0.38310732  0.83205525  0.56160482    -0.81700
O584        O  0.36167333  0.78817963  0.73513500    -0.66400
O585        O  0.37004229  0.82800751  0.63847441    -1.13000
C586        C  0.47776534  0.87160725  0.67115601     1.05200
O587        O  0.39279318  0.83471888  0.76015471    -0.79600
O588        O  0.43245490  0.88871766  0.72152263    -0.67200
Ni589      Ni  0.35293533  0.80141543  0.59607657     1.34900
C590        C  0.42426276  0.89999086  0.69322007     0.83900
O591        O  0.32099897  0.78574592  0.68261417    -0.80200
O592        O  0.31919584  0.76860282  0.62445304    -0.90400
C593        C  0.36902185  0.80711878  0.76238670     0.83500
O594        O  0.37905114  0.78208215  0.60590202    -0.68600
O595        O  0.46905700  0.86183429  0.70500158    -0.87900
C596        C  0.37866680  0.76633745  0.63564911     0.84300
C597        C  0.30691386  0.76654503  0.65644245     1.05900
H598        H  0.41655353  0.81145027  0.68304952     0.37700
O599        O  0.40924530  0.82675215  0.68695898    -1.10600
O600        O  0.41368186  0.88518115  0.66286661    -0.67200
Ni601      Ni  0.41463569  0.84969358  0.64099549     1.26300
O602        O  0.36685057  0.76919146  0.66631773    -0.67500
O603        O  0.45904720  0.86997477  0.64461027    -0.79700
C604        C  0.40348642  0.86116549  0.56475917     0.83700
O605        O  0.41822856  0.87252233  0.59508831    -0.66900
Ni606      Ni  0.43046406  0.84799712  0.73115796     1.27400
Ni607      Ni  0.36516115  0.80629109  0.68583629     1.26100
H608        H  0.36161607  0.84266418  0.63958161     0.38200
O609        O  0.31223040  0.78221217  0.09815414    -0.81700
O610        O  0.30257035  0.75819068  0.92138794    -0.66400
O611        O  0.30839175  0.78947563  0.02024459    -1.13000
C612        C  0.19924805  0.73291037  0.01009783     1.05200
O613        O  0.27005901  0.77555410  0.90162448    -0.79600
O614        O  0.24897563  0.80022888  0.95357357    -0.67200
Ni615      Ni  0.33362280  0.77953620  0.05464420     1.34900
C616        C  0.25452611  0.81334176  0.98530913     0.83900
O617        O  0.34966877  0.79751514  0.96334797    -0.80200
O618        O  0.36046042  0.77856943  0.01618963    -0.90400
C619        C  0.29193621  0.76887005  0.89535488     0.83500
O620        O  0.30495578  0.73509267  0.04976838    -0.68600
O621        O  0.20387893  0.74048427  0.97502601    -0.87900
C622        C  0.29902023  0.72041496  0.01882497     0.84300
C623        C  0.36779523  0.79131393  0.98338816     1.05900
H624        H  0.25573292  0.72847096  0.97869587     0.37700
O625        O  0.26294870  0.75116474  0.97801565    -1.10600
O626        O  0.25877546  0.80087707  0.01544653    -0.67200
Ni627      Ni  0.26430675  0.76460004  0.02850776     1.26300
O628        O  0.30784639  0.73563913  0.98739953    -0.67500
O629        O  0.22070848  0.73908303  0.03454334    -0.79700
C630        C  0.28739843  0.78389612  0.10431278     0.83700
O631        O  0.26648049  0.77828689  0.07923600    -0.66900
Ni632      Ni  0.23807250  0.75795844  0.94040147     1.24700
Ni633      Ni  0.30614009  0.77389985  0.97054390     1.26100
H634        H  0.31520259  0.81210183  0.01949838     0.38200
O635        O  0.34037745  0.88601552  0.44055840    -0.81700
O636        O  0.29111678  0.84182198  0.27309410    -0.66400
O637        O  0.33279910  0.86091617  0.36866467    -1.13000
C638        C  0.38183367  0.96420923  0.31177298     1.05200
O639        O  0.33749986  0.86489261  0.24565257    -0.79600
O640        O  0.39393526  0.90835876  0.27691434    -0.67200
Ni641      Ni  0.30773394  0.85226064  0.41250247     1.34900
C642        C  0.40527250  0.90440364  0.30798885     0.83900
O643        O  0.28661136  0.80736665  0.33527479    -0.80200
O644        O  0.27256194  0.81616611  0.39107543    -0.90400
C645        C  0.30833719  0.84500976  0.24515877     0.83500
O646        O  0.29214819  0.88023517  0.39477516    -0.68600
O647        O  0.37182525  0.95081996  0.28001945    -0.87900
C648        C  0.27581477  0.87653920  0.36504654     0.84300
C649        C  0.26812130  0.79861433  0.36288913     1.05900
H650        H  0.32089255  0.90487155  0.31137351     0.37700
O651        O  0.33415308  0.89489676  0.31097036    -1.10600
O652        O  0.39062893  0.89815343  0.33879495    -0.67200
Ni653      Ni  0.35748661  0.90513898  0.35640351     1.26300
O654        O  0.27681978  0.86006554  0.33770120    -0.67500
O655        O  0.38008551  0.94909170  0.34265820    -0.79700
C656        C  0.36956714  0.90203285  0.43456512     0.83700
O657        O  0.38060494  0.91314556  0.40230988    -0.66900
Ni658      Ni  0.35486780  0.90774339  0.26418384     1.27400
Ni659      Ni  0.31027291  0.85099003  0.32197227     1.26100
H660        H  0.34553520  0.85026522  0.37085232     0.38200
O661        O  0.42510722  0.58760167  0.56707085    -0.81700
O662        O  0.43539944  0.63824478  0.73165832    -0.66400
O663        O  0.45028140  0.62326618  0.63033661    -1.13000
C664        C  0.43860730  0.52675455  0.69010359     1.05200
O665        O  0.47377217  0.62760566  0.74858270    -0.79600
O666        O  0.49513695  0.58880959  0.71543245    -0.67200
Ni667      Ni  0.42375536  0.62314716  0.58950979     1.34900
C668        C  0.00716338  0.59418431  0.68282025     0.83900
O669        O  0.44182675  0.67079771  0.66564831    -0.80200
O670        O  0.42050138  0.65918304  0.60785031    -0.90400
C671        C  0.45786174  0.64208956  0.75418256     0.83500
O672        O  0.38450411  0.59477224  0.61277379    -0.68600
O673        O  0.43840132  0.53943103  0.72136988    -0.87900
C674        C  0.37438894  0.59714147  0.64474523     0.84300
C675        C  0.42847608  0.67639026  0.63711973     1.05900
H676        H  0.41440438  0.57429473  0.69248940     0.37700
O677        O  0.43639628  0.58937969  0.69020498    -1.10600
O678        O  0.49409646  0.60093353  0.65464009    -0.67200
Ni679      Ni  0.44920236  0.58281779  0.64270061     1.26300
O680        O  0.39347163  0.61082212  0.67224293    -0.67500
O681        O  0.44477412  0.54163475  0.65794286    -0.79700
C682        C  0.45004633  0.58547581  0.56356762     0.83700
O683        O  0.46229096  0.57963810  0.59277022    -0.66900
Ni684      Ni  0.45580213  0.58345064  0.73413301     1.27400
Ni685      Ni  0.43960711  0.63038446  0.67942599     1.26100
H686        H  0.47156442  0.63915842  0.62489142     0.38200
O687        O  0.02090758  0.73212525  0.90133716    -0.81700
O688        O  0.03898215  0.73960006  0.07755397    -0.66400
O689        O  0.01898251  0.71015915  0.97678337    -1.13000
C690        C  0.44583563  0.74505870  0.99385942     1.05200
O691        O  0.49045455  0.70696528  0.09387141    -0.79600
O692        O  0.43766364  0.68285732  0.04567277    -0.67200
Ni693      Ni  0.05005294  0.73001781  0.93852679     1.34900
C694        C  0.43309887  0.66522253  0.01745469     0.83900
O695        O  0.06306325  0.71550734  0.03047288    -0.80200
O696        O  0.08082084  0.72658772  0.97092692    -0.90400
C697        C  0.01971987  0.72130806  0.10212099     0.83500
O698        O  0.06599455  0.77479627  0.95087063    -0.68600
O699        O  0.44990712  0.74367950  0.02956052    -0.87900
C700        C  0.07296670  0.78824992  0.98288942     0.84300
C701        C  0.08209267  0.71809100  0.00520137     1.05900
H702        H  0.00702851  0.75906397  0.01707587     0.37700
O703        O  0.49814008  0.73625539  0.02050292    -1.10600
O704        O  0.45267259  0.67461450  0.99004810    -0.67200
Ni705      Ni  0.48411025  0.71785150  0.97237828     1.26300
O706        O  0.06197707  0.77153596  0.01322876    -0.67500
O707        O  0.45239267  0.73008570  0.96946208    -0.79700
C708        C  0.49264439  0.71076038  0.89554572     0.83700
O709        O  0.47351916  0.70045809  0.92282351    -0.66900
Ni710      Ni  0.46958698  0.72466768  0.06047648     1.27400
Ni711      Ni  0.03110585  0.72677711  0.02640029     1.26100
H712        H  0.01191381  0.68747432  0.97757662     0.38200
O713        O  0.06974067  0.66237631  0.23741059    -0.81700
O714        O  0.02565975  0.61521429  0.40155062    -0.66400
O715        O  0.03847758  0.65349412  0.30300597    -1.13000
C716        C  0.13788484  0.71784327  0.35680767     1.05200
O717        O  0.04013547  0.66297741  0.42408839    -0.79600
O718        O  0.07971585  0.72253295  0.39039775    -0.67200
Ni719      Ni  0.03302823  0.62872581  0.25955775     1.34900
C720        C  0.07292516  0.73232174  0.35960105     0.83900
O721        O  0.49021049  0.60304592  0.33928246    -0.80200
O722        O  0.49501067  0.59421287  0.27863003    -0.90400
C723        C  0.02409996  0.63259587  0.42704744     0.83500
O724        O  0.05702822  0.60825248  0.27696939    -0.68600
O725        O  0.12516776  0.70596394  0.38872514    -0.87900
C726        C  0.05697173  0.59482739  0.30854881     0.84300
C727        C  0.47920108  0.58832855  0.30880042     1.05900
H728        H  0.08685996  0.65253225  0.35934175     0.37700
O729        O  0.07395329  0.66291015  0.35971231    -1.10600
O730        O  0.06563920  0.71545842  0.33020413    -0.67200
Ni731      Ni  0.08015544  0.68624218  0.31342463     1.26300
O732        O  0.04624379  0.60072000  0.33837967    -0.67500
O733        O  0.12239412  0.71612988  0.32647502    -0.79700
C734        C  0.07343312  0.69052829  0.23574557     0.83700
O735        O  0.08314106  0.70728414  0.26504169    -0.66900
Ni736      Ni  0.08286726  0.68491557  0.40535352     1.27400
Ni737      Ni  0.03214440  0.63221466  0.35083776     1.26100
H738        H  0.02458529  0.66275876  0.30065583     0.38200
C739        C  0.02785403  0.68449908  0.19700772    -0.10000
C740        C  0.06037095  0.70074770  0.20304372     0.06200
C741        C  0.07892376  0.72571126  0.17793228    -0.03700
C742        C  0.06513413  0.73240783  0.14599648    -0.08200
C743        C  0.03249353  0.71526449  0.13881223     0.05300
C744        C  0.01377974  0.69194043  0.16605729    -0.03200
Br745      Br  0.46898135  0.66964754  0.16412698    -0.02900
H746        H  0.01314329  0.66592801  0.21689854     0.09200
H747        H  0.08028321  0.75099039  0.12644249     0.07300
Br748      Br  0.12324233  0.75042951  0.18536003    -0.03300
C749        C  0.44320185  0.66300170  0.81060065    -0.10000
C750        C  0.46652248  0.66373180  0.78715238     0.06200
C751        C  0.49817268  0.68318583  0.79767510    -0.03700
C752        C  0.00580274  0.69938051  0.83192042    -0.08200
C753        C  0.48262397  0.69702085  0.85682679     0.05300
C754        C  0.45085278  0.67913184  0.84513552    -0.03200
Br755      Br  0.41659372  0.67549130  0.87470404    -0.02900
H756        H  0.41878895  0.64864853  0.80287088     0.09200
H757        H  0.03030850  0.71314189  0.83955710     0.07300
Br758      Br  0.03231549  0.68857251  0.76662037    -0.03300
C759        C  0.46216726  0.61469664  0.50152743    -0.10000
C760        C  0.46608864  0.59309452  0.52615116     0.06200
C761        C  0.98741531  0.58232557  0.51573421    -0.03700
C762        C  0.00530118  0.59451878  0.48270279    -0.08200
C763        C  0.00272455  0.61770471  0.45967575     0.05300
C764        C  0.48015848  0.62697938  0.46883521    -0.03200
Br765      Br  0.47238702  0.65578952  0.43703971    -0.02900
H766        H  0.44577887  0.62313609  0.50839510     0.09200
H767        H  0.02196527  0.58650975  0.47556289     0.07300
Br768      Br  0.99254371  0.55047141  0.54469094    -0.03300
C769        C  0.22232494  0.76448314  0.32468547    -0.10000
C770        C  0.23772976  0.77024033  0.35971158     0.06200
C771        C  0.22089290  0.75447471  0.39222794    -0.03700
C772        C  0.18857144  0.73677432  0.39011597    -0.08200
C773        C  0.17239659  0.73411888  0.35584410     0.05300
C774        C  0.18983924  0.74660004  0.32233837    -0.03200
Br775      Br  0.17184288  0.74190277  0.27257326    -0.02900
H776        H  0.23524259  0.77620893  0.29934832     0.09200
H777        H  0.17613158  0.72608406  0.41601969     0.07300
Br778      Br  0.24055026  0.75774448  0.44072580    -0.03300
C779        C  0.40766148  0.51577403  0.27735744    -0.10000
C780        C  0.39851220  0.99919145  0.31201516     0.06200
C781        C  0.40936803  0.01624787  0.34575120    -0.03700
C782        C  0.43436243  0.54702159  0.34413320    -0.08200
C783        C  0.44745191  0.56138396  0.30930371     0.05300
C784        C  0.43159552  0.54701593  0.27577533    -0.03200
Br785      Br  0.44175885  0.56805905  0.22705664    -0.02900
H786        H  0.39783832  0.00401954  0.25103955     0.09200
H787        H  0.94461726  0.55883933  0.37038372     0.07300
Br788      Br  0.39205770  0.99932064  0.39466458    -0.03300
C789        C  0.29279583  0.78202603  0.17404937    -0.10000
C790        C  0.28430768  0.79445518  0.14209992     0.06200
C791        C  0.27879516  0.82072170  0.14638684    -0.03700
C792        C  0.28452787  0.83567664  0.18123895    -0.08200
C793        C  0.29526649  0.82459492  0.21221652     0.05300
C794        C  0.29797885  0.79671423  0.20898934    -0.03200
Br795      Br  0.31071155  0.77926270  0.25107706    -0.02900
H796        H  0.29692092  0.76175618  0.17138583     0.09200
H797        H  0.28243123  0.85718844  0.18353631     0.07300
Br798      Br  0.26771969  0.84001763  0.10477100    -0.03300
C799        C  0.42276799  0.80919283  0.99092089    -0.10000
C800        C  0.39637190  0.79443398  0.96762943     0.06200
C801        C  0.39367872  0.77046724  0.94331089    -0.03700
C802        C  0.41207292  0.75579003  0.95006863    -0.08200
C803        C  0.43338028  0.76567981  0.98010511     0.05300
C804        C  0.44131753  0.79466882  0.99773740    -0.03200
Br805      Br  0.47528108  0.81402462  0.03332320    -0.02900
H806        H  0.42581537  0.82868448  0.00849898     0.09200
H807        H  0.40744473  0.73475595  0.93450042     0.07300
Br808      Br  0.36113299  0.75185782  0.90654429    -0.03300
C809        C  0.12744309  0.72934240  0.04592554    -0.10000
C810        C  0.10770781  0.71209502  0.01624599     0.06200
C811        C  0.11522861  0.69280072  0.99425984    -0.03700
C812        C  0.14485839  0.69550012  0.99761081    -0.08200
C813        C  0.16689375  0.71769159  0.02215169     0.05300
C814        C  0.15727672  0.73217212  0.04922133    -0.03200
Br815      Br  0.18518074  0.76027885  0.08658451    -0.02900
H816        H  0.12099552  0.74323553  0.06390562     0.09200
H817        H  0.15194181  0.68338323  0.97770743     0.07300
Br818      Br  0.08703019  0.66494883  0.95697712    -0.03300
C819        C  0.33054850  0.76502883  0.80542633    -0.10000
C820        C  0.34857641  0.79763657  0.79604584     0.06200
C821        C  0.34581497  0.82026193  0.81848648    -0.03700
C822        C  0.32558602  0.80998871  0.84929104    -0.08200
C823        C  0.30837886  0.77758750  0.85905235     0.05300
C824        C  0.31094394  0.75496479  0.83689692    -0.03200
Br825      Br  0.28845433  0.71015775  0.84884720    -0.02900
H826        H  0.33218518  0.74725532  0.78869209     0.09200
H827        H  0.32417111  0.82756513  0.86666083     0.07300
Br828      Br  0.36828601  0.86554237  0.80895774    -0.03300
C829        C  0.45179424  0.98631245  0.66782442    -0.10000
C830        C  0.43357345  0.99381428  0.69139626     0.06200
C831        C  0.41262202  0.97021561  0.71678951    -0.03700
C832        C  0.41044989  0.93982608  0.71814811    -0.08200
C833        C  0.42854541  0.93251594  0.69416860     0.05300
C834        C  0.44937521  0.95604543  0.66897482    -0.03200
Br835      Br  0.47586105  0.94849877  0.63616980    -0.02900
H836        H  0.46845020  0.00426409  0.64875461     0.09200
H837        H  0.39394589  0.92161087  0.73707551     0.07300
Br838      Br  0.38478406  0.97715965  0.74810971    -0.03300
C839        C  0.41222789  0.71288250  0.60311222    -0.10000
C840        C  0.41957414  0.70247249  0.63764569     0.06200
C841        C  0.41391497  0.71406877  0.67129272    -0.03700
C842        C  0.40070150  0.73464377  0.66971474    -0.08200
C843        C  0.39272975  0.74442439  0.63521012     0.05300
C844        C  0.39899262  0.73338440  0.60150703    -0.03200
Br845      Br  0.38862563  0.74339323  0.55202076    -0.02900
H846        H  0.41602599  0.70431046  0.57682103     0.09200
H847        H  0.39647098  0.74291676  0.69597256     0.07300
Br848      Br  0.42171062  0.70173521  0.72072688    -0.03300
C849        C  0.41469642  0.87506577  0.49736499    -0.10000
C850        C  0.40749417  0.88251399  0.53238128     0.06200
C851        C  0.39532432  0.90403821  0.53405549    -0.03700
C852        C  0.38673115  0.91439894  0.50075090    -0.08200
C853        C  0.39064248  0.90396423  0.46577656     0.05300
C854        C  0.40665096  0.88588373  0.46405615    -0.03200
Br855      Br  0.41209991  0.86955253  0.41755499    -0.02900
H856        H  0.42370739  0.85824970  0.49590230     0.09200
H857        H  0.37405155  0.92786008  0.50237806     0.07300
Br858      Br  0.38418879  0.91483513  0.58102616    -0.03300
C859        C  0.22552440  0.91545749  0.38978466    -0.10000
C860        C  0.21231394  0.91710473  0.35462223     0.06200
C861        C  0.22165880  0.90680910  0.32264167    -0.03700
C862        C  0.24272338  0.89442459  0.32665414    -0.08200
C863        C  0.25479992  0.89149168  0.36215563     0.05300
C864        C  0.24599270  0.90255760  0.39400389    -0.03200
Br865      Br  0.25819610  0.89852956  0.44502243    -0.02900
H866        H  0.21876584  0.92300846  0.41486830     0.09200
H867        H  0.24911966  0.88633034  0.30174231     0.07300
Br868      Br  0.20491875  0.90633727  0.27309412    -0.03300
C869        C  0.49128239  0.93608985  0.33315596    -0.10000
C870        C  0.99997523  0.91846509  0.30978746     0.06200
C871        C  0.47676652  0.89538927  0.28618981    -0.03700
C872        C  0.44602845  0.89094882  0.28598938    -0.08200
C873        C  0.43760078  0.90882370  0.30916296     0.05300
C874        C  0.46062604  0.93165553  0.33284945    -0.03200
Br875      Br  0.45240347  0.95965379  0.36286294    -0.02900
H876        H  0.00872265  0.95446526  0.35070168     0.09200
H877        H  0.42855325  0.87328347  0.26782017     0.07300
Br878      Br  0.48487532  0.86818293  0.25459143    -0.03300
C879        C  0.06887764  0.52437798  0.27940145    -0.10000
C880        C  0.09151190  0.52423343  0.30499899     0.06200
C881        C  0.10230166  0.54768933  0.33338684    -0.03700
C882        C  0.09082266  0.57019967  0.33503528    -0.08200
C883        C  0.06830488  0.57006837  0.30892308     0.05300
C884        C  0.05727413  0.54628389  0.28132260    -0.03200
Br885      Br  0.02396049  0.54058193  0.24693965    -0.02900
H886        H  0.05889368  0.50629862  0.25814486     0.09200
H887        H  0.09989206  0.58813728  0.35651425     0.07300
Br888      Br  0.13285466  0.05051155  0.37075996    -0.03300
C889        C  0.08521897  0.81560647  0.32530135    -0.10000
C890        C  0.09399262  0.83282266  0.35900235     0.06200
C891        C  0.09219231  0.81533730  0.39286368    -0.03700
C892        C  0.08325843  0.78262914  0.39213151    -0.08200
C893        C  0.07585980  0.76557106  0.35836860     0.05300
C894        C  0.07596472  0.78260488  0.32466537    -0.03200
Br895      Br  0.06446140  0.76311479  0.27630548    -0.02900
H896        H  0.08595013  0.82801019  0.29895256     0.09200
H897        H  0.08341018  0.77073962  0.41856490     0.07300
Br898      Br  0.10425462  0.83444354  0.44155505    -0.03300
C899        C  0.18696282  0.93257351  0.15153431    -0.10000
C900        C  0.20465223  0.96465653  0.13951660     0.06200
C901        C  0.20280744  0.98829036  0.16094805    -0.03700
C902        C  0.18334086  0.97966211  0.19255607    -0.08200
C903        C  0.16526207  0.94768929  0.20423529     0.05300
C904        C  0.16769473  0.92400633  0.18365219    -0.03200
Br905      Br  0.14320658  0.87946908  0.19597864    -0.02900
H906        H  0.18758961  0.91396697  0.13538733     0.09200
H907        H  0.18188256  0.99824674  0.20782061     0.07300
Br908      Br  0.22328175  0.53269241  0.14637057    -0.03300
C909        C  0.13401950  0.87422667  0.01601006    -0.10000
C910        C  0.14098289  0.89288981  0.98235643     0.06200
C911        C  0.12336680  0.87679255  0.94987439    -0.03700
C912        C  0.10118335  0.84379470  0.95123745    -0.08200
C913        C  0.09518535  0.82465874  0.98442031     0.05300
C914        C  0.11210859  0.84096427  0.01726085    -0.03200
Br915      Br  0.10912178  0.81890598  0.06437448    -0.02900
H916        H  0.14722431  0.88509856  0.04131559     0.09200
H917        H  0.08886395  0.83285582  0.92548513     0.07300
Br918      Br  0.12836604  0.89841100  0.90190307    -0.03300
C919        C  0.35596447  0.59210802  0.05016013    -0.10000
C920        C  0.33771828  0.58188432  0.01685708     0.06200
C921        C  0.35377408  0.59622936  0.98258341    -0.03700
C922        C  0.38523124  0.62172167  0.98279860    -0.08200
C923        C  0.40243226  0.63346480  0.01662169     0.05300
C924        C  0.38743969  0.61672476  0.05022170    -0.03200
Br925      Br  0.40914100  0.62537630  0.09763411    -0.02900
H926        H  0.34551849  0.58130421  0.07699382     0.09200
H927        H  0.39587421  0.63313405  0.95626412     0.07300
Br928      Br  0.33460313  0.58178787  0.93422483    -0.03300
C929        C  0.25090221  0.63243544  0.04745346    -0.10000
C930        C  0.25384850  0.61751186  0.01537225     0.06200
C931        C  0.26980412  0.63660744  0.98381621    -0.03700
C932        C  0.28364066  0.66979917  0.98557987    -0.08200
C933        C  0.28230916  0.68493410  0.01844429     0.05300
C934        C  0.26466969  0.66567987  0.04925224    -0.03200
Br935      Br  0.25796405  0.68254506  0.09464183    -0.02900
H936        H  0.23861677  0.61809336  0.07189816     0.09200
H937        H  0.29659377  0.68386154  0.96132309     0.07300
Br938      Br  0.27683028  0.61946979  0.93893708    -0.03300
C939        C  0.26477675  0.89529100  0.96191151    -0.10000
C940        C  0.24590158  0.89812705  0.98945239     0.06200
C941        C  0.23213462  0.87378900  0.01748243    -0.03700
C942        C  0.23636628  0.84691165  0.01622471    -0.08200
C943        C  0.25412967  0.84369581  0.98778180     0.05300
C944        C  0.26891927  0.86837413  0.96083825    -0.03200
Br945      Br  0.29524236  0.86675571  0.92227790    -0.02900
H946        H  0.27602744  0.91389144  0.94059983     0.09200
H947        H  0.22446692  0.82766356  0.03662463     0.07300
Br948      Br  0.20530047  0.87376305  0.05658874    -0.03300
C949        C  0.23013866  0.55882168  0.80652548    -0.10000
C950        C  0.20061133  0.55771507  0.80280171     0.06200
C951        C  0.18142136  0.54884783  0.83531937    -0.03700
C952        C  0.19040080  0.53833769  0.86851946    -0.08200
C953        C  0.21894505  0.53768033  0.87118182     0.05300
C954        C  0.23944273  0.54933859  0.84033570    -0.03200
Br955      Br  0.27961867  0.55087183  0.84247926    -0.02900
H956        H  0.24570735  0.56594699  0.78261320     0.09200
H957        H  0.17479122  0.53034426  0.89244509     0.07300
Br958      Br  0.14279314  0.55072352  0.83725388    -0.03300
C959        C  0.29262987  0.58337218  0.67740778    -0.10000
C960        C  0.27390627  0.57055202  0.64498321     0.06200
C961        C  0.28784536  0.56344967  0.61468203    -0.03700
C962        C  0.31955027  0.57032728  0.61658293    -0.08200
C963        C  0.33913247  0.58512874  0.64803074     0.05300
C964        C  0.32464709  0.59097148  0.67909010    -0.03200
Br965      Br  0.34720413  0.61138368  0.72394047    -0.02900
H966        H  0.28281878  0.58946363  0.70096940     0.09200
H967        H  0.32919567  0.56500780  0.59226265     0.07300
Br968      Br  0.26474014  0.54430753  0.56957664    -0.03300
C969        C  0.03593753  0.56999978  0.64822446    -0.10000
C970        C  0.03559205  0.58903957  0.67779062     0.06200
C971        C  0.05912712  0.59689918  0.70596640    -0.03700
C972        C  0.08097146  0.58512455  0.70503750    -0.08200
C973        C  0.08066110  0.56504209  0.67633652     0.05300
C974        C  0.05775960  0.55803613  0.64730274    -0.03200
Br975      Br  0.05270009  0.52950508  0.60754946    -0.02900
H976        H  0.01774923  0.56258102  0.62681416     0.09200
H977        H  0.09820799  0.59148724  0.72753149     0.07300
Br978      Br  0.56282743  0.62417316  0.74660400    -0.03300
C979        C  0.05447374  0.93284065  0.63165687    -0.10000
C980        C  0.07204840  0.93971353  0.66516372     0.06200
C981        C  0.06196455  0.91723654  0.69513862    -0.03700
C982        C  0.03193206  0.89165581  0.69409893    -0.08200
C983        C  0.51168860  0.88840793  0.66374915     0.05300
C984        C  0.02437506  0.90702229  0.63040930    -0.03200
Br985      Br  0.50191752  0.90041870  0.58334686    -0.02900
H986        H  0.06291618  0.94910355  0.60754713     0.09200
H987        H  0.02354028  0.87616932  0.71885603     0.07300
Br988      Br  0.08711840  0.92149878  0.73934567    -0.03300
C989        C  0.27958351  0.71818176  0.69472364    -0.10000
C990        C  0.27832075  0.73728221  0.66465511     0.06200
C991        C  0.25596875  0.72355110  0.63591051    -0.03700
C992        C  0.23923352  0.69062312  0.63387603    -0.08200
C993        C  0.24407455  0.67107551  0.66069448     0.05300
C994        C  0.26265773  0.68503881  0.69303510    -0.03200
Br995      Br  0.26919859  0.66117235  0.73368056    -0.02900
H996        H  0.29662352  0.72876618  0.71724575     0.09200
H997        H  0.22338402  0.68035880  0.61022148     0.07300
Br998      Br  0.25024122  0.74890818  0.59661419    -0.03300
C999        C  0.10672669  0.98976641  0.52445582    -0.10000
C1000       C  0.13832801  0.51382354  0.52544022     0.06200
C1001       C  0.15653471  0.51917548  0.49265295    -0.03700
C1002       C  0.14351929  0.00002971  0.46116262    -0.08200
C1003       C  0.11251001  0.97531443  0.46099407     0.05300
C1004       C  0.09393297  0.97051365  0.49277036    -0.03200
Br1005     Br  0.05110482  0.93781158  0.49387274    -0.02900
H1006       H  0.09192150  0.98519686  0.54872413     0.09200
H1007       H  0.15799206  0.00403961  0.43666069     0.07300
Br1008     Br  0.19909680  0.55238903  0.48813270    -0.03300
O1009       O  0.66078956  0.05527211  0.75925791    -0.81700
O1010       O  0.63247843  0.03007798  0.58673556    -0.66400
O1011       O  0.66024402  0.03069840  0.68838018    -1.13000
C1012       C  0.72916634  0.13694098  0.65356268     1.05200
O1013       O  0.68088764  0.04836244  0.56698718    -0.79600
O1014       O  0.73555059  0.07951897  0.61062004    -0.67200
Ni1015     Ni  0.63128265  0.02085748  0.72862998     1.34900
C1016       C  0.74241119  0.07001467  0.64158267     0.83900
O1017       O  0.61451608  0.48646198  0.64231661    -0.80200
O1018       O  0.60030762  0.48413310  0.70265927    -0.90400
C1019       C  0.65132439  0.03229474  0.56111455     0.83500
O1020       O  0.61236474  0.04691378  0.71190755    -0.68600
O1021       O  0.72264898  0.12840720  0.61914071    -0.87900
C1022       C  0.60311497  0.05091632  0.67925079     0.84300
C1023       C  0.59759648  0.47176431  0.67044661     1.05900
H1024       H  0.66513524  0.08635364  0.63788137     0.37700
O1025       O  0.67537008  0.07327990  0.63694550    -1.10600
O1026       O  0.72460729  0.06239072  0.67034832    -0.67200
Ni1027     Ni  0.69272851  0.07366264  0.68581571     1.26300
O1028       O  0.61221529  0.04299062  0.64963333    -0.67500
O1029       O  0.72238039  0.11760003  0.68168795    -0.79700
C1030       C  0.68929251  0.06212725  0.76432949     0.83700
O1031       O  0.70743533  0.07111692  0.73608182    -0.66900
Ni1032     Ni  0.70197629  0.08813819  0.59458171     1.27400
Ni1033     Ni  0.64438667  0.03014084  0.63844112     1.26100
H1034       H  0.66917772  0.01639690  0.69007483     0.38200
O1035       O  0.74738411  0.99866283  0.09861194    -0.81700
O1036       O  0.74606596  0.04021484  0.92948488    -0.66400
O1037       O  0.72460721  0.01023185  0.03132450    -1.13000
C1038       C  0.73938738  0.42524651  0.98611783     1.05200
O1039       O  0.70961287  0.49261702  0.91071222    -0.79600
O1040       O  0.68514341  0.43310714  0.94880542    -0.67200
Ni1041     Ni  0.74985627  0.03569459  0.07214008     1.34900
C1042       C  0.67042997  0.42580896  0.97979005     0.83900
O1043       O  0.73473770  0.06542272  0.99043173    -0.80200
O1044       O  0.75296771  0.07442140  0.05001723    -0.90400
C1045       C  0.72573253  0.02291757  0.90523476     0.83500
O1046       O  0.79100430  0.04699261  0.05250460    -0.68600
O1047       O  0.74159326  0.43804691  0.95317814    -0.87900
C1048       C  0.80220974  0.05884717  0.02002940     0.84300
C1049       C  0.74594766  0.08351469  0.01875975     1.05900
H1050       H  0.76401611  0.49614808  0.97717532     0.37700
O1051       O  0.74193134  0.48987273  0.97655636    -1.10600
O1052       O  0.68152984  0.44428576  0.00830939    -0.67200
Ni1053     Ni  0.72584497  0.47073380  0.02437199     1.26300
O1054       O  0.78386205  0.05328855  0.99134635    -0.67500
O1055       O  0.73141004  0.43430677  0.01566648    -0.79700
C1056       C  0.72178646  0.47293590  0.10265622     0.83700
O1057       O  0.70999900  0.45519466  0.07433182    -0.66900
Ni1058     Ni  0.72589722  0.46553280  0.93291237     1.27400
Ni1059     Ni  0.73813675  0.02767658  0.98182683     1.26100
H1060       H  0.70319544  0.00581408  0.03460220     0.38200
O1061       O  0.60388497  0.42848463  0.42914961    -0.81700
O1062       O  0.64103761  0.42012345  0.26222107    -0.66400
O1063       O  0.63344484  0.44660507  0.36047045    -1.13000
C1064       C  0.53356037  0.42612167  0.30854445     1.05200
O1065       O  0.62867093  0.45655474  0.23942136    -0.79600
O1066       O  0.59219531  0.48134059  0.27219854    -0.67200
Ni1067     Ni  0.63666001  0.42428784  0.40462377     1.34900
C1068       C  0.59919716  0.49674314  0.30272215     0.83900
O1069       O  0.67811426  0.43498205  0.32418296    -0.80200
O1070       O  0.67056032  0.41899197  0.38478477    -0.90400
C1071       C  0.64336215  0.44038168  0.23644163     0.83500
O1072       O  0.60693556  0.38246748  0.38826600    -0.68600
O1073       O  0.54427822  0.42331579  0.27693704    -0.87900
C1074       C  0.60710606  0.36880623  0.35806913     0.84300
C1075       C  0.68586295  0.42477811  0.35415396     1.05900
H1076       H  0.58132477  0.40280868  0.30699276     0.37700
O1077       O  0.59590001  0.42533336  0.30519445    -1.10600
O1078       O  0.60934747  0.48724754  0.33123103    -0.67200
Ni1079     Ni  0.59262079  0.44343411  0.35059370     1.26300
O1080       O  0.61918135  0.38499578  0.32768169    -0.67500
O1081       O  0.55056405  0.43653724  0.33856366    -0.79700
C1082       C  0.60161477  0.45394010  0.42811270     0.83700
O1083       O  0.59319760  0.46256092  0.39773591    -0.66900
Ni1084     Ni  0.58647965  0.43985419  0.25919870     1.27400
Ni1085     Ni  0.63715631  0.43055756  0.31313840     1.26100
H1086       H  0.64904333  0.46877767  0.36195935     0.38200
O1087       O  0.88298599  0.33216408  0.56176814    -0.81700
O1088       O  0.86158198  0.28810160  0.73526624    -0.66400
O1089       O  0.87007255  0.32808925  0.63867893    -1.13000
C1090       C  0.97777970  0.37143852  0.67132773     1.05200
O1091       O  0.89279821  0.33455219  0.76041893    -0.79600
O1092       O  0.93238293  0.38857509  0.72180538    -0.67200
Ni1093     Ni  0.85285927  0.30152578  0.59626798     1.34900
C1094       C  0.92434330  0.39991906  0.69343757     0.83900
O1095       O  0.82096960  0.28588621  0.68279411    -0.80200
O1096       O  0.81912894  0.26871854  0.62464902    -0.90400
C1097       C  0.86897107  0.30698602  0.76257664     0.83500
O1098       O  0.87894848  0.28214479  0.60599898    -0.68600
O1099       O  0.96907202  0.36178786  0.70520599    -0.87900
C1100       C  0.87856277  0.26637680  0.63572828     0.84300
C1101       C  0.80685342  0.26668986  0.65663161     1.05900
H1102       H  0.91647207  0.31131519  0.68326447     0.37700
O1103       O  0.90921710  0.32666218  0.68715306    -1.10600
O1104       O  0.91391386  0.38519200  0.66300703    -0.67200
Ni1105     Ni  0.91467155  0.34960491  0.64116372     1.26300
O1106       O  0.86672468  0.26919246  0.66640021    -0.67500
O1107       O  0.95906539  0.36971210  0.64474114    -0.79700
C1108       C  0.90355990  0.36120113  0.56491983     0.83700
O1109       O  0.91836615  0.37246649  0.59524076    -0.66900
Ni1110     Ni  0.93045938  0.34788111  0.73137090     1.27400
Ni1111     Ni  0.86513236  0.30631227  0.68601383     1.26100
H1112       H  0.86173197  0.34281634  0.63982060     0.38200
O1113       O  0.81212679  0.28225524  0.09827290    -0.81700
O1114       O  0.80245958  0.25807972  0.92154940    -0.66400
O1115       O  0.80825148  0.28943325  0.02036400    -1.13000
C1116       C  0.69911973  0.23281948  0.01024286     1.05200
O1117       O  0.76990327  0.27536614  0.90172716    -0.79600
O1118       O  0.74890299  0.30012336  0.95366229    -0.67200
Ni1119     Ni  0.83353103  0.27957593  0.05477777     1.34900
C1120       C  0.75440812  0.31322799  0.98540006     0.83900
O1121       O  0.84954017  0.29748683  0.96346665    -0.80200
O1122       O  0.86038643  0.27861812  0.01633096    -0.90400
C1123       C  0.79180579  0.26871344  0.89548945     0.83500
O1124       O  0.80490466  0.23511438  0.04996163    -0.68600
O1125       O  0.70375638  0.24041098  0.97517672    -0.87900
C1126       C  0.79897384  0.22041720  0.01903311     0.84300
C1127       C  0.86769339  0.29132518  0.98350724     1.05900
H1128       H  0.75563089  0.22836395  0.97884738     0.37700
O1129       O  0.76282537  0.25105406  0.97815971    -1.10600
O1130       O  0.75859021  0.30074579  0.01556151    -0.67200
Ni1131     Ni  0.76416989  0.26450572  0.02864548     1.26300
O1132       O  0.80778517  0.23562164  0.98759537    -0.67500
O1133       O  0.72057573  0.23895163  0.03468401    -0.79700
C1134       C  0.78725990  0.28386973  0.10444233     0.83700
O1135       O  0.76632423  0.27820488  0.07937218    -0.66900
Ni1136     Ni  0.73793977  0.25782806  0.94053555     1.24700
Ni1137     Ni  0.80601517  0.27383072  0.97068126     1.26100
H1138       H  0.81503058  0.31205286  0.01959174     0.38200
O1139       O  0.84046379  0.38562792  0.44079154    -0.81700
O1140       O  0.79110361  0.34188647  0.27320254    -0.66400
O1141       O  0.83284292  0.36085396  0.36873220    -1.13000
C1142       C  0.88192433  0.46417428  0.31190144     1.05200
O1143       O  0.83746164  0.36483875  0.24572407    -0.79600
O1144       O  0.89392686  0.40815675  0.27701262    -0.67200
Ni1145     Ni  0.80773329  0.35209636  0.41256161     1.34900
C1146       C  0.90528492  0.40427217  0.30810535     0.83900
O1147       O  0.78665799  0.30737932  0.33527588    -0.80200
O1148       O  0.77248353  0.31614232  0.39100700    -0.90400
C1149       C  0.80828615  0.34500505  0.24525811     0.83500
O1150       O  0.79228298  0.38024313  0.39498224    -0.68600
O1151       O  0.87199738  0.45077143  0.28013920    -0.87900
C1152       C  0.77599983  0.37666473  0.36522379     0.84300
C1153       C  0.76808834  0.29862912  0.36279496     1.05900
H1154       H  0.82097165  0.40488557  0.31145507     0.37700
O1155       O  0.83421583  0.39489121  0.31107470    -1.10600
O1156       O  0.89069734  0.39816634  0.33894159    -0.67200
Ni1157     Ni  0.85751568  0.40509986  0.35653469     1.26300
O1158       O  0.77692794  0.36013858  0.33788424    -0.67500
O1159       O  0.88009886  0.44906915  0.34282337    -0.79700
C1160       C  0.86962914  0.40187800  0.43473170     0.83700
O1161       O  0.88059977  0.41309871  0.40247616    -0.66900
Ni1162     Ni  0.85493439  0.40769141  0.26428741     1.27400
Ni1163     Ni  0.81031539  0.35099930  0.32204821     1.26100
H1164       H  0.84558300  0.35020527  0.37087423     0.38200
O1165       O  0.92511991  0.08772728  0.56712921    -0.81700
O1166       O  0.93541759  0.13837497  0.73168106    -0.66400
O1167       O  0.95030096  0.12340456  0.63037724    -1.13000
C1168       C  0.93867441  0.02690693  0.69014770     1.05200
O1169       O  0.97381933  0.12777532  0.74859134    -0.79600
O1170       O  0.99521305  0.08901037  0.71546481    -0.67200
Ni1171     Ni  0.92376957  0.12327791  0.58955275     1.34900
C1172       C  0.50723419  0.09436738  0.68283964     0.83900
O1173       O  0.94182567  0.17092374  0.66568889    -0.80200
O1174       O  0.92050926  0.15931420  0.60788660    -0.90400
C1175       C  0.95790348  0.14225503  0.75417835     0.83500
O1176       O  0.88452027  0.09490298  0.61281383    -0.68600
O1177       O  0.93849805  0.03958984  0.72142222    -0.87900
C1178       C  0.87440507  0.09726541  0.64478680     0.84300
C1179       C  0.92847213  0.17651390  0.63716223     1.05900
H1180       H  0.91444828  0.07443006  0.69254824     0.37700
O1181       O  0.93643698  0.08952341  0.69025268    -1.10600
O1182       O  0.99414276  0.10109920  0.65466733    -0.67200
Ni1183     Ni  0.94923826  0.08296447  0.64275140     1.26300
O1184       O  0.89348703  0.11093958  0.67228729    -0.67500
O1185       O  0.94482133  0.04179020  0.65799104    -0.79700
C1186       C  0.95005585  0.08559513  0.56363206     0.83700
O1187       O  0.96231053  0.07977123  0.59283085    -0.66900
Ni1188     Ni  0.95587034  0.08361621  0.73416980     1.27400
Ni1189     Ni  0.93962482  0.13051791  0.67946238     1.26100
H1190       H  0.97158173  0.13930202  0.62493119     0.38200
O1191       O  0.52094313  0.23218473  0.90135024    -0.81700
O1192       O  0.53883633  0.23958063  0.07757994    -0.66400
O1193       O  0.51891035  0.21016422  0.97679361    -1.13000
C1194       C  0.94578429  0.24510845  0.99376977     1.05200
O1195       O  0.99030303  0.20696024  0.09387776    -0.79600
O1196       O  0.93756990  0.18286593  0.04559815    -0.67200
Ni1197     Ni  0.55002458  0.23001862  0.93858192     1.34900
C1198       C  0.93301336  0.16524775  0.01736641     0.83900
O1199       O  0.56293112  0.21546700  0.03054981    -0.80200
O1200       O  0.58074330  0.22654905  0.97102807    -0.90400
C1201       C  0.51955820  0.22129673  0.10213699     0.83500
O1202       O  0.56597522  0.27478925  0.95093657    -0.68600
O1203       O  0.94981472  0.24369093  0.02947557    -0.87900
C1204       C  0.57291828  0.28823890  0.98295544     0.84300
C1205       C  0.58197894  0.21804393  0.00530654     1.05900
H1206       H  0.50694506  0.25907675  0.01706632     0.37700
O1207       O  0.99805871  0.23626737  0.02049392    -1.10600
O1208       O  0.95258628  0.17465870  0.98995751    -0.67200
Ni1209     Ni  0.98406950  0.21789768  0.97234260     1.26300
O1210       O  0.56189586  0.27152334  0.01328645    -0.67500
O1211       O  0.95237989  0.23017174  0.96936577    -0.79700
C1212       C  0.99267417  0.21086409  0.89552172     0.83700
O1213       O  0.97352467  0.20054368  0.92277270    -0.66900
Ni1214     Ni  0.96947017  0.22467332  0.06043064     1.27400
Ni1215     Ni  0.53099432  0.22676483  0.02642408     1.26100
H1216       H  0.51182600  0.18747635  0.97758204     0.38200
O1217       O  0.56972599  0.16249980  0.23745765    -0.81700
O1218       O  0.52574226  0.11529342  0.40165986    -0.66400
O1219       O  0.53844290  0.15350609  0.30308492    -1.13000
C1220       C  0.63783156  0.21806170  0.35674745     1.05200
O1221       O  0.54020112  0.16306186  0.42417535    -0.79600
O1222       O  0.57967534  0.22260199  0.39044974    -0.67200
Ni1223     Ni  0.53311228  0.12874838  0.25967247     1.34900
C1224       C  0.57278986  0.23234204  0.35968453     0.83900
O1225       O  0.99025100  0.10301963  0.33946789    -0.80200
O1226       O  0.99517776  0.09408866  0.27888802    -0.90400
C1227       C  0.52416940  0.13268227  0.42713926     0.83500
O1228       O  0.55730897  0.10851194  0.27714095    -0.68600
O1229       O  0.62518478  0.20614858  0.38868697    -0.87900
C1230       C  0.55716853  0.09500355  0.30868491     0.84300
C1231       C  0.97930871  0.08824533  0.30900380     1.05900
H1232       H  0.58691671  0.15268429  0.35934596     0.37700
O1233       O  0.57397205  0.16301861  0.35975525    -1.10600
O1234       O  0.56544263  0.21544670  0.33031177    -0.67200
Ni1235     Ni  0.58007063  0.18633946  0.31347361     1.26300
O1236       O  0.54633085  0.10079730  0.33848965    -0.67500
O1237       O  0.62227586  0.21631929  0.32647011    -0.79700
C1238       C  0.57331647  0.19061491  0.23580013     0.83700
O1239       O  0.58295231  0.20736589  0.26510614    -0.66900
Ni1240     Ni  0.58290694  0.18503550  0.40538859     1.27400
Ni1241     Ni  0.53217806  0.13225670  0.35092937     1.26100
H1242       H  0.52449302  0.16270139  0.30071359     0.38200
C1243       C  0.52774085  0.18435017  0.19689856    -0.10000
C1244       C  0.56023378  0.20078315  0.20307251     0.06200
C1245       C  0.57872989  0.22590008  0.17810189    -0.03700
C1246       C  0.56492701  0.23256798  0.14615787    -0.08200
C1247       C  0.53231828  0.21525480  0.13884126     0.05300
C1248       C  0.51364271  0.19177233  0.16595989    -0.03200
Br1249     Br  0.96886489  0.16911347  0.16381749    -0.02900
H1250       H  0.51306221  0.16566000  0.21668731     0.09200
H1251       H  0.58004089  0.25127621  0.12670945     0.07300
Br1252     Br  0.62299402  0.25088590  0.18572675    -0.03300
C1253       C  0.94325521  0.16321981  0.81053313    -0.10000
C1254       C  0.96657489  0.16392383  0.78710993     0.06200
C1255       C  0.99822650  0.18336943  0.79762850    -0.03700
C1256       C  0.50587302  0.19951120  0.83189613    -0.08200
C1257       C  0.98267250  0.19718606  0.85678174     0.05300
C1258       C  0.95090505  0.17934447  0.84506499    -0.03200
Br1259     Br  0.91665010  0.17576358  0.87459241    -0.02900
H1260       H  0.91884253  0.14888690  0.80278926     0.09200
H1261       H  0.53037620  0.21324334  0.83955959     0.07300
Br1262     Br  0.53239322  0.18870053  0.76660187    -0.03300
C1263       C  0.96230678  0.11492878  0.50168592    -0.10000
C1264       C  0.96609937  0.09320718  0.52623101     0.06200
C1265       C  0.48730939  0.08232567  0.51571367    -0.03700
C1266       C  0.50520565  0.09449765  0.48268767    -0.08200
C1267       C  0.50277134  0.11780960  0.45974842     0.05300
C1268       C  0.98032876  0.12720971  0.46902133    -0.03200
Br1269     Br  0.97274966  0.15621675  0.43735215    -0.02900
H1270       H  0.94600488  0.12346626  0.50860359     0.09200
H1271       H  0.52177261  0.08637735  0.47549101     0.07300
Br1272     Br  0.49224312  0.05031492  0.54458650    -0.03300
C1273       C  0.72219283  0.26508355  0.32448126    -0.10000
C1274       C  0.73767106  0.27035884  0.35942194     0.06200
C1275       C  0.72091089  0.25425142  0.39182860    -0.03700
C1276       C  0.68858494  0.23658289  0.38977299    -0.08200
C1277       C  0.67233593  0.23436674  0.35566445     0.05300
C1278       C  0.68970286  0.24729633  0.32218994    -0.03200
Br1279     Br  0.67161907  0.24346395  0.27258186    -0.02900
H1280       H  0.73506590  0.27713873  0.29923719     0.09200
H1281       H  0.67620385  0.22556275  0.41561100     0.07300
Br1282     Br  0.74072158  0.25701964  0.44010936    -0.03300
C1283       C  0.90766633  0.01584229  0.27739021    -0.10000
C1284       C  0.89855985  0.49916303  0.31210338     0.06200
C1285       C  0.90939967  0.51627040  0.34580770    -0.03700
C1286       C  0.93440559  0.04693877  0.34424270    -0.08200
C1287       C  0.94755827  0.06131410  0.30944525     0.05300
C1288       C  0.93170845  0.04703137  0.27587666    -0.03200
Br1289     Br  0.94201869  0.06811864  0.22718873    -0.02900
H1290       H  0.89777708  0.50393380  0.25112250     0.09200
H1291       H  0.44467202  0.05871672  0.37041950     0.07300
Br1292     Br  0.89219304  0.49936026  0.39476559    -0.03300
C1293       C  0.79274424  0.28202354  0.17416070    -0.10000
C1294       C  0.78414525  0.29439128  0.14224675     0.06200
C1295       C  0.77851497  0.32057843  0.14658596    -0.03700
C1296       C  0.78427730  0.33554545  0.18143603    -0.08200
C1297       C  0.79515951  0.32455001  0.21235709     0.05300
C1298       C  0.79795587  0.29672007  0.20909611    -0.03200
Br1299     Br  0.81083064  0.27934569  0.25112979    -0.02900
H1300       H  0.79694310  0.26180326  0.17146602     0.09200
H1301       H  0.78209834  0.35700846  0.18376589     0.07300
Br1302     Br  0.76722642  0.33975841  0.10504143    -0.03300
C1303       C  0.92267979  0.30920072  0.99100755    -0.10000
C1304       C  0.89627363  0.29445630  0.96772910     0.06200
C1305       C  0.89359917  0.27054195  0.94333166    -0.03700
C1306       C  0.91201015  0.25587060  0.95001504    -0.08200
C1307       C  0.93333503  0.26574050  0.98003297     0.05300
C1308       C  0.94127201  0.29470970  0.99770994    -0.03200
Br1309     Br  0.97530540  0.31407407  0.03320196    -0.02900
H1310       H  0.92572437  0.32866283  0.00863706     0.09200
H1311       H  0.90739252  0.23486327  0.93439684     0.07300
Br1312     Br  0.86111293  0.25204121  0.90647790    -0.03300
C1313       C  0.62733613  0.22934138  0.04602214    -0.10000
C1314       C  0.60757931  0.21203871  0.01638866     0.06200
C1315       C  0.61508759  0.19271311  0.99444348    -0.03700
C1316       C  0.64471926  0.19541508  0.99779513    -0.08200
C1317       C  0.66676794  0.21763871  0.02229695     0.05300
C1318       C  0.65717305  0.23218118  0.04931192    -0.03200
Br1319     Br  0.68511818  0.26040493  0.08655590    -0.02900
H1320       H  0.62090534  0.24327625  0.06395442     0.09200
H1321       H  0.65179125  0.18326818  0.97792042     0.07300
Br1322     Br  0.58687099  0.16482575  0.95719878    -0.03300
C1323       C  0.83039395  0.26487664  0.80552759    -0.10000
C1324       C  0.84850448  0.29749066  0.79622238     0.06200
C1325       C  0.84580029  0.32011855  0.81872017    -0.03700
C1326       C  0.82555417  0.30984541  0.84950792    -0.08200
C1327       C  0.80826436  0.27743766  0.85919538     0.05300
C1328       C  0.81076914  0.25480954  0.83698423    -0.03200
Br1329     Br  0.78819711  0.20999635  0.84886887    -0.02900
H1330       H  0.83198511  0.24710005  0.78874990     0.09200
H1331       H  0.82418618  0.32742411  0.86692136     0.07300
Br1332     Br  0.86836607  0.36540641  0.80928357    -0.03300
C1333       C  0.95188829  0.48622348  0.66801981    -0.10000
C1334       C  0.93355144  0.49368446  0.69144363     0.06200
C1335       C  0.91255108  0.47008007  0.71679243    -0.03700
C1336       C  0.91042108  0.43971076  0.71822910    -0.08200
C1337       C  0.92862933  0.43243932  0.69439222     0.05300
C1338       C  0.94953239  0.45598375  0.66927070    -0.03200
Br1339     Br  0.97620116  0.44848395  0.63671600    -0.02900
H1340       H  0.96859100  0.50418884  0.64900330     0.09200
H1341       H  0.89386436  0.42148076  0.73709900     0.07300
Br1342     Br  0.88460831  0.47699600  0.74795417    -0.03300
C1343       C  0.91223958  0.21302558  0.60316953    -0.10000
C1344       C  0.91955111  0.20258194  0.63770154     0.06200
C1345       C  0.91382979  0.21412126  0.67135438    -0.03700
C1346       C  0.90059441  0.23467647  0.66978129    -0.08200
C1347       C  0.89265226  0.24448677  0.63527665     0.05300
C1348       C  0.89897563  0.23350333  0.60156992    -0.03200
Br1349     Br  0.88864913  0.24355409  0.55208478    -0.02900
H1350       H  0.91608379  0.20449444  0.57687464     0.09200
H1351       H  0.89631822  0.24290559  0.69604424     0.07300
Br1352     Br  0.92155185  0.20172051  0.72078727    -0.03300
C1353       C  0.91480550  0.37499500  0.49752147    -0.10000
C1354       C  0.90772811  0.38258945  0.53252488     0.06200
C1355       C  0.89571373  0.40424811  0.53414226    -0.03700
C1356       C  0.88705619  0.41452947  0.50081696    -0.08200
C1357       C  0.89080561  0.40392305  0.46587715     0.05300
C1358       C  0.90673115  0.38576057  0.46419267    -0.03200
Br1359     Br  0.91199744  0.36924706  0.41773218    -0.02900
H1360       H  0.92370986  0.35808872  0.49609692     0.09200
H1361       H  0.87445661  0.42807187  0.50242102     0.07300
Br1362     Br  0.88488805  0.41536249  0.58110732    -0.03300
C1363       C  0.72619018  0.41627383  0.38960513    -0.10000
C1364       C  0.71255323  0.41731591  0.35453236     0.06200
C1365       C  0.72151192  0.40647632  0.32271362    -0.03700
C1366       C  0.74259631  0.39412797  0.32680703    -0.08200
C1367       C  0.75509192  0.39176103  0.36225178     0.05300
C1368       C  0.74673014  0.40345066  0.39392132    -0.03200
Br1369     Br  0.75974258  0.40052674  0.44486747    -0.02900
H1370       H  0.71972897  0.42427122  0.41455742     0.09200
H1371       H  0.74864086  0.38557407  0.30201251     0.07300
Br1372     Br  0.70412480  0.40511733  0.27335942    -0.03300
C1373       C  0.99127361  0.43583075  0.33324491    -0.10000
C1374       C  0.49999699  0.41826575  0.30975817     0.06200
C1375       C  0.97675097  0.39526073  0.28610679    -0.03700
C1376       C  0.94601332  0.39082240  0.28596785    -0.08200
C1377       C  0.93759231  0.40863502  0.30925956     0.05300
C1378       C  0.96062345  0.43140131  0.33299802    -0.03200
Br1379     Br  0.95243382  0.45935103  0.36314699    -0.02900
H1380       H  0.50874786  0.45417977  0.35079444     0.09200
H1381       H  0.92853624  0.37321504  0.26774553     0.07300
Br1382     Br  0.98485248  0.36815009  0.25432970    -0.03300
C1383       C  0.56929309  0.02475363  0.27928505    -0.10000
C1384       C  0.59169692  0.02440352  0.30510462     0.06200
C1385       C  0.60228602  0.04767959  0.33369895    -0.03700
C1386       C  0.59081865  0.07019912  0.33534644    -0.08200
C1387       C  0.56851778  0.07025922  0.30902429     0.05300
C1388       C  0.55769896  0.04666317  0.28120205    -0.03200
Br1389     Br  0.52465564  0.04118666  0.24648438    -0.02900
H1390       H  0.55946397  0.00682168  0.25784663     0.09200
H1391       H  0.59972117  0.08798758  0.35700092     0.07300
Br1392     Br  0.63346244  0.55101831  0.36977273    -0.03300
C1393       C  0.58501939  0.31558061  0.32534286    -0.10000
C1394       C  0.59406406  0.33287805  0.35898289     0.06200
C1395       C  0.59238683  0.31545030  0.39285044    -0.03700
C1396       C  0.58337494  0.28272878  0.39216685    -0.08200
C1397       C  0.57573241  0.26558917  0.35845418     0.05300
C1398       C  0.57563182  0.28254483  0.32477129    -0.03200
Br1399     Br  0.56355292  0.26285203  0.27656209    -0.02900
H1400       H  0.58560303  0.32793427  0.29900435     0.09200
H1401       H  0.58365417  0.27089032  0.41859150     0.07300
Br1402     Br  0.60469162  0.33463873  0.44147826    -0.03300
C1403       C  0.68703206  0.43259893  0.15144440    -0.10000
C1404       C  0.70466702  0.46467999  0.13940250     0.06200
C1405       C  0.70273077  0.48829816  0.16075645    -0.03700
C1406       C  0.68328305  0.47966082  0.19237663    -0.08200
C1407       C  0.66527659  0.44768984  0.20410131     0.05300
C1408       C  0.66774371  0.42401766  0.18353879    -0.03200
Br1409     Br  0.64323111  0.37947271  0.19580867    -0.02900
H1410       H  0.68770277  0.41400343  0.13532088     0.09200
H1411       H  0.68176835  0.49823254  0.20760117     0.07300
Br1412     Br  0.72356666  0.03270926  0.14667895    -0.03300
C1413       C  0.63396826  0.37422726  0.01605799    -0.10000
C1414       C  0.64099223  0.39286006  0.98237366     0.06200
C1415       C  0.62339610  0.37674548  0.94988949    -0.03700
C1416       C  0.60119605  0.34375609  0.95127193    -0.08200
C1417       C  0.59514518  0.32464514  0.98448203     0.05300
C1418       C  0.61202387  0.34097240  0.01733412    -0.03200
Br1419     Br  0.60890113  0.31895540  0.06451484    -0.02900
H1420       H  0.64714050  0.38511642  0.04137560     0.09200
H1421       H  0.58890138  0.33280382  0.92551266     0.07300
Br1422     Br  0.62843162  0.39832964  0.90188849    -0.03300
C1423       C  0.85593687  0.09208085  0.05009784    -0.10000
C1424       C  0.83766283  0.08187430  0.01682071     0.06200
C1425       C  0.85367557  0.09625415  0.98253183    -0.03700
C1426       C  0.88512841  0.12175608  0.98272238    -0.08200
C1427       C  0.90235797  0.13348119  0.01653148     0.05300
C1428       C  0.88739821  0.11671572  0.05013285    -0.03200
Br1429     Br  0.90910978  0.12536571  0.09752418    -0.02900
H1430       H  0.84551926  0.08125695  0.07693630     0.09200
H1431       H  0.89574091  0.13319451  0.95618536     0.07300
Br1432     Br  0.83444581  0.08186424  0.93418376    -0.03300
C1433       C  0.75092008  0.13243431  0.04768545    -0.10000
C1434       C  0.75384459  0.11752074  0.01558098     0.06200
C1435       C  0.76978396  0.13662341  0.98402452    -0.03700
C1436       C  0.78361085  0.16981059  0.98579752    -0.08200
C1437       C  0.78228910  0.18493796  0.01867257     0.05300
C1438       C  0.76467843  0.16567834  0.04949318    -0.03200
Br1439     Br  0.75799645  0.18253482  0.09490438    -0.02900
H1440       H  0.73865333  0.11808497  0.07213451     0.09200
H1441       H  0.79654633  0.18387595  0.96153312     0.07300
Br1442     Br  0.77680647  0.11950576  0.93912771    -0.03300
C1443       C  0.76481501  0.39522985  0.96198834    -0.10000
C1444       C  0.74590312  0.39807510  0.98946976     0.06200
C1445       C  0.73205549  0.37372339  0.01746765    -0.03700
C1446       C  0.73624762  0.34682342  0.01623593    -0.08200
C1447       C  0.75404394  0.34359615  0.98784608     0.05300
C1448       C  0.76891612  0.36828717  0.96093985    -0.03200
Br1449     Br  0.79529876  0.36664926  0.92247185    -0.02900
H1450       H  0.77612409  0.41384203  0.94070472     0.09200
H1451       H  0.72429031  0.32756724  0.03660800     0.07300
Br1452     Br  0.70514966  0.37370329  0.05647766    -0.03300
C1453       C  0.73010304  0.05843209  0.80630578    -0.10000
C1454       C  0.70083073  0.05792092  0.80278497     0.06200
C1455       C  0.68191134  0.04965950  0.83548763    -0.03700
C1456       C  0.69083101  0.03912282  0.86871790    -0.08200
C1457       C  0.71907087  0.03783028  0.87118338     0.05300
C1458       C  0.73936048  0.04890587  0.84011749    -0.03200
Br1459     Br  0.77917509  0.04961693  0.84201633    -0.02900
H1460       H  0.74547156  0.06509138  0.78223697     0.09200
H1461       H  0.67540821  0.03159805  0.89281017     0.07300
Br1462     Br  0.64379028  0.05250166  0.83760825    -0.03300
C1463       C  0.79265682  0.08354746  0.67740356    -0.10000
C1464       C  0.77393551  0.07071021  0.64498235     0.06200
C1465       C  0.78786654  0.06357077  0.61470640    -0.03700
C1466       C  0.81956634  0.07043130  0.61662608    -0.08200
C1467       C  0.83914960  0.08525539  0.64806655     0.05300
C1468       C  0.82466889  0.09113316  0.67910272    -0.03200
Br1469     Br  0.84722667  0.11158232  0.72393638    -0.02900
H1470       H  0.78284853  0.08966385  0.70094688     0.09200
H1471       H  0.82920828  0.06508313  0.59232457     0.07300
Br1472     Br  0.76475416  0.04439945  0.56961650    -0.03300
C1473       C  0.53610089  0.07030016  0.64821159    -0.10000
C1474       C  0.53568744  0.08925890  0.67783055     0.06200
C1475       C  0.55916696  0.09705111  0.70606984    -0.03700
C1476       C  0.58100390  0.08526500  0.70516260    -0.08200
C1477       C  0.58075011  0.06524787  0.67641359     0.05300
C1478       C  0.55791979  0.05833212  0.64730559    -0.03200
Br1479     Br  0.55294532  0.02992261  0.60744184    -0.02900
H1480       H  0.51796540  0.06294477  0.62673718     0.09200
H1481       H  0.59819123  0.09157057  0.72770713     0.07300
Br1482     Br  0.06286430  0.12435606  0.74670000    -0.03300
C1483       C  0.55449812  0.43257732  0.63173393    -0.10000
C1484       C  0.57208061  0.43948916  0.66523458     0.06200
C1485       C  0.56200527  0.41704513  0.69524397    -0.03700
C1486       C  0.53196037  0.39147917  0.69425317    -0.08200
C1487       C  0.01170048  0.38820842  0.66389673     0.05300
C1488       C  0.52439457  0.40676648  0.63052545    -0.03200
Br1489     Br  0.00189224  0.40012779  0.58346382    -0.02900
H1490       H  0.56293316  0.44881342  0.60759937     0.09200
H1491       H  0.52356776  0.37602874  0.71903912     0.07300
Br1492     Br  0.58719473  0.42134524  0.73942825    -0.03300
C1493       C  0.77951902  0.21832536  0.69488723    -0.10000
C1494       C  0.77824420  0.23744609  0.66485256     0.06200
C1495       C  0.75589937  0.22372692  0.63609735    -0.03700
C1496       C  0.73921127  0.19079876  0.63399484    -0.08200
C1497       C  0.74408047  0.17124026  0.66077039     0.05300
C1498       C  0.76264004  0.18518380  0.69313470    -0.03200
Br1499     Br  0.76922471  0.16130272  0.73372615    -0.02900
H1500       H  0.79655003  0.22889941  0.71742048     0.09200
H1501       H  0.72337453  0.18054665  0.61032671     0.07300
Br1502     Br  0.75014073  0.24911504  0.59686731    -0.03300
C1503       C  0.60672718  0.48958495  0.52440915    -0.10000
C1504       C  0.63834084  0.01399026  0.52546842     0.06200
C1505       C  0.65652588  0.01935159  0.49265950    -0.03700
C1506       C  0.64351677  0.50002646  0.46106662    -0.08200
C1507       C  0.61252743  0.47527418  0.46088365     0.05300
C1508       C  0.59395136  0.47037688  0.49268786    -0.03200
Br1509     Br  0.55115421  0.43759606  0.49378815    -0.02900
H1510       H  0.59192652  0.48494705  0.54869798     0.09200
H1511       H  0.65799032  0.50409880  0.43654925     0.07300
Br1512     Br  0.69904278  0.05265212  0.48806845    -0.03300
O1513       O  0.66072520  0.55534952  0.75903972    -0.81700
O1514       O  0.63246798  0.52993048  0.58672173    -0.66400
O1515       O  0.66021282  0.53059297  0.68837727    -1.13000
C1516       C  0.72920353  0.63678485  0.65348196     1.05200
O1517       O  0.68087362  0.54813947  0.56700705    -0.79600
O1518       O  0.73553021  0.57926998  0.61063444    -0.67200
Ni1519     Ni  0.63125593  0.52078170  0.72861588     1.34900
C1520       C  0.74239139  0.56981179  0.64162845     0.83900
O1521       O  0.61456532  0.98657437  0.64229374    -0.80200
O1522       O  0.60027033  0.98430382  0.70257984    -0.90400
C1523       C  0.65131119  0.53211647  0.56111529     0.83500
O1524       O  0.61221466  0.54670094  0.71183799    -0.68600
O1525       O  0.72270326  0.62821103  0.61907145    -0.87900
C1526       C  0.60304297  0.55076906  0.67916891     0.84300
C1527       C  0.59758843  0.97190790  0.67039271     1.05900
H1528       H  0.66516820  0.58623536  0.63781190     0.37700
O1529       O  0.67538441  0.57314214  0.63691321    -1.10600
O1530       O  0.72460136  0.56225120  0.67040252    -0.67200
Ni1531     Ni  0.69272440  0.57354972  0.68580994     1.26300
O1532       O  0.61221841  0.54291523  0.64955898    -0.67500
O1533       O  0.72239348  0.61747816  0.68164619    -0.79700
C1534       C  0.68915838  0.56204292  0.76429839     0.83700
O1535       O  0.70739130  0.57102333  0.73613311    -0.66900
Ni1536     Ni  0.70199560  0.58793131  0.59455516     1.27400
Ni1537     Ni  0.64436624  0.53001644  0.63843267     1.26100
H1538       H  0.66913534  0.51628218  0.69009023     0.38200
O1539       O  0.74739361  0.49872937  0.09858091    -0.81700
O1540       O  0.74609819  0.54010251  0.92936558    -0.66400
O1541       O  0.72462502  0.51023414  0.03125337    -1.13000
C1542       C  0.73940977  0.92530109  0.98606608     1.05200
O1543       O  0.70969616  0.99273534  0.91064246    -0.79600
O1544       O  0.68518201  0.93320423  0.94872685    -0.67200
Ni1545     Ni  0.74983664  0.53572828  0.07206725     1.34900
C1546       C  0.67045899  0.92586848  0.97970844     0.83900
O1547       O  0.73480085  0.56540920  0.99026281    -0.80200
O1548       O  0.75293222  0.57443131  0.04988770    -0.90400
C1549       C  0.72567081  0.52278607  0.90520539     0.83500
O1550       O  0.79100013  0.54703997  0.05250107    -0.68600
O1551       O  0.74163413  0.93813479  0.95314427    -0.87900
C1552       C  0.80223509  0.55884546  0.02002455     0.84300
C1553       C  0.74596142  0.58351203  0.01858871     1.05900
H1554       H  0.76401523  0.99622766  0.97720486     0.37700
O1555       O  0.74192686  0.98993529  0.97657258    -1.10600
O1556       O  0.68153564  0.94431587  0.00825719    -0.67200
Ni1557     Ni  0.72583373  0.97074541  0.02437581     1.26300
O1558       O  0.78391333  0.55324120  0.99129902    -0.67500
O1559       O  0.73140785  0.93432867  0.01562166    -0.79700
C1560       C  0.72176135  0.97288124  0.10267851     0.83700
O1561       O  0.70996811  0.95516192  0.07433289    -0.66900
Ni1562     Ni  0.72595168  0.96563569  0.93288269     1.27400
Ni1563     Ni  0.73817876  0.52763824  0.98174169     1.26100
H1564       H  0.70321096  0.50581971  0.03449912     0.38200
O1565       O  0.60386656  0.92851742  0.42924414    -0.81700
O1566       O  0.64094345  0.92009302  0.26225991    -0.66400
O1567       O  0.63337135  0.94658386  0.36051957    -1.13000
C1568       C  0.53354360  0.92627814  0.30857724     1.05200
O1569       O  0.62865389  0.95657264  0.23945738    -0.79600
O1570       O  0.59228813  0.98145867  0.27228583    -0.67200
Ni1571     Ni  0.63658180  0.92425204  0.40465771     1.34900
C1572       C  0.59928010  0.99683244  0.30283050     0.83900
O1573       O  0.67802301  0.93497617  0.32419391    -0.80200
O1574       O  0.67042862  0.91891126  0.38476043    -0.90400
C1575       C  0.64330808  0.94036307  0.23647882     0.83500
O1576       O  0.60683079  0.88242733  0.38830965    -0.68600
O1577       O  0.54427461  0.92349015  0.27697159    -0.87900
C1578       C  0.60703993  0.86878166  0.35811139     0.84300
C1579       C  0.68574341  0.92472069  0.35413662     1.05900
H1580       H  0.58123690  0.90282907  0.30701437     0.37700
O1581       O  0.59582652  0.92535102  0.30523776    -1.10600
O1582       O  0.60936129  0.98727662  0.33134382    -0.67200
Ni1583     Ni  0.59256677  0.94345376  0.35065745     1.26300
O1584       O  0.61910498  0.88498982  0.32772985    -0.67500
O1585       O  0.55052671  0.93662869  0.33862422    -0.79700
C1586       C  0.60161667  0.95398650  0.42818536     0.83700
O1587       O  0.59317368  0.96258522  0.39781030    -0.66900
Ni1588     Ni  0.58646862  0.93994476  0.25924754     1.27400
Ni1589     Ni  0.63707101  0.93054809  0.31317465     1.26100
H1590       H  0.64898255  0.96875123  0.36201626     0.38200
O1591       O  0.88324699  0.83209381  0.56161117    -0.81700
O1592       O  0.86169792  0.78820233  0.73511248    -0.66400
O1593       O  0.87004175  0.82802203  0.63845439    -1.13000
C1594       C  0.97776309  0.87168946  0.67114491     1.05200
O1595       O  0.89280847  0.83474888  0.76012508    -0.79600
O1596       O  0.93251907  0.88876415  0.72152193    -0.67200
Ni1597     Ni  0.85300098  0.80145591  0.59603147     1.34900
C1598       C  0.92424381  0.90002056  0.69327542     0.83900
O1599       O  0.82101136  0.78573659  0.68257584    -0.80200
O1600       O  0.81921725  0.76865873  0.62437210    -0.90400
C1601       C  0.86904602  0.80714229  0.76236394     0.83500
O1602       O  0.87907483  0.78207758  0.60589720    -0.68600
O1603       O  0.96905955  0.86182462  0.70496705    -0.87900
C1604       C  0.87866522  0.76632412  0.63564607     0.84300
C1605       C  0.80692969  0.76657033  0.65636884     1.05900
H1606       H  0.91657844  0.81150702  0.68297323     0.37700
O1607       O  0.90925771  0.82679285  0.68692555    -1.10600
O1608       O  0.91356624  0.88518438  0.66295797    -0.67200
Ni1609     Ni  0.91462508  0.84978058  0.64100563     1.26300
O1610       O  0.86686690  0.76920450  0.66631228    -0.67500
O1611       O  0.95904131  0.87014066  0.64464171    -0.79700
C1612       C  0.90349728  0.86124927  0.56478786     0.83700
O1613       O  0.91817257  0.87264452  0.59514161    -0.66900
Ni1614     Ni  0.93047829  0.84801374  0.73113302     1.27400
Ni1615     Ni  0.86517201  0.80630466  0.68581015     1.26100
H1616       H  0.86157617  0.84264662  0.63955942     0.38200
O1617       O  0.81225810  0.78223276  0.09809591    -0.81700
O1618       O  0.80257397  0.75817650  0.92134967    -0.66400
O1619       O  0.80839379  0.78947394  0.02019800    -1.13000
C1620       C  0.69925412  0.73287919  0.01006281     1.05200
O1621       O  0.77005910  0.77553227  0.90157939    -0.79600
O1622       O  0.74900359  0.80022322  0.95353580    -0.67200
Ni1623     Ni  0.83364093  0.77955037  0.05458770     1.34900
C1624       C  0.75453407  0.81332702  0.98527539     0.83900
O1625       O  0.84967115  0.79751838  0.96329393    -0.80200
O1626       O  0.86046920  0.77857448  0.01612995    -0.90400
C1627       C  0.79194014  0.76885285  0.89531415     0.83500
O1628       O  0.80497600  0.73510462  0.04973149    -0.68600
O1629       O  0.70388993  0.74048091  0.97499747    -0.87900
C1630       C  0.79903454  0.72042139  0.01879177     0.84300
C1631       C  0.86780058  0.79131829  0.98332879     1.05900
H1632       H  0.75574158  0.72845854  0.97865021     0.37700
O1633       O  0.76295424  0.75115181  0.97797536    -1.10600
O1634       O  0.75875739  0.80084972  0.01541971    -0.67200
Ni1635     Ni  0.76430960  0.76458030  0.02847199     1.26300
O1636       O  0.80785841  0.73564013  0.98736296    -0.67500
O1637       O  0.72071287  0.73904284  0.03450882    -0.79700
C1638       C  0.78740913  0.78387592  0.10428237     0.83700
O1639       O  0.76647880  0.77824934  0.07921511    -0.66900
Ni1640     Ni  0.73807861  0.75794773  0.94036514     1.24700
Ni1641     Ni  0.80614337  0.77389427  0.97049932     1.26100
H1642       H  0.81519540  0.81209814  0.01944900     0.38200
O1643       O  0.84033120  0.88590250  0.44056327    -0.81700
O1644       O  0.79111309  0.84184204  0.27303394    -0.66400
O1645       O  0.83277009  0.86089456  0.36862115    -1.13000
C1646       C  0.88181789  0.96420132  0.31176947     1.05200
O1647       O  0.83750841  0.86488670  0.24562114    -0.79600
O1648       O  0.89393349  0.90833313  0.27691831    -0.67200
Ni1649     Ni  0.80767946  0.85222131  0.41243884     1.34900
C1650       C  0.90526359  0.90439583  0.30800699     0.83900
O1651       O  0.78657815  0.80736040  0.33520036    -0.80200
O1652       O  0.77249415  0.81617781  0.39096518    -0.90400
C1653       C  0.80834500  0.84500174  0.24512217     0.83500
O1654       O  0.79216617  0.88025814  0.39471916    -0.68600
O1655       O  0.87185229  0.95082389  0.27999956    -0.87900
C1656       C  0.77584679  0.87658939  0.36498336     0.84300
C1657       C  0.76807427  0.79861403  0.36279936     1.05900
H1658       H  0.82088902  0.90486971  0.31130995     0.37700
O1659       O  0.83414666  0.89489077  0.31092738    -1.10600
O1660       O  0.89061889  0.89817184  0.33881004    -0.67200
Ni1661     Ni  0.85744600  0.90512382  0.35638187     1.26300
O1662       O  0.77681986  0.86008642  0.33765015    -0.67500
O1663       O  0.88002875  0.94907219  0.34265413    -0.79700
C1664       C  0.86951241  0.90201241  0.43456449     0.83700
O1665       O  0.88053785  0.91314500  0.40230981    -0.66900
Ni1666     Ni  0.85488389  0.90774140  0.26415644     1.27400
Ni1667     Ni  0.81025656  0.85098732  0.32191765     1.26100
H1668       H  0.84551060  0.85024881  0.37081035     0.38200
O1669       O  0.92510013  0.58756233  0.56708021    -0.81700
O1670       O  0.93540249  0.63820151  0.73169657    -0.66400
O1671       O  0.95026709  0.62323064  0.63035537    -1.13000
C1672       C  0.93859767  0.52670518  0.69006825     1.05200
O1673       O  0.97374703  0.62751859  0.74862888    -0.79600
O1674       O  0.99510721  0.58873348  0.71544507    -0.67200
Ni1675     Ni  0.92371687  0.62308478  0.58954241     1.34900
C1676       C  0.50717934  0.59423435  0.68280129     0.83900
O1677       O  0.94179924  0.67075323  0.66567172    -0.80200
O1678       O  0.92043406  0.65909951  0.60789502    -0.90400
C1679       C  0.95784806  0.64201361  0.75423585     0.83500
O1680       O  0.88448442  0.59468308  0.61283272    -0.68600
O1681       O  0.93836505  0.53935874  0.72134212    -0.87900
C1682       C  0.87437815  0.59707484  0.64480072     0.84300
C1683       C  0.92842075  0.67632230  0.63715108     1.05900
H1684       H  0.91439682  0.57424991  0.69248708     0.37700
O1685       O  0.93638956  0.58933551  0.69021547    -1.10600
O1686       O  0.99409490  0.60091086  0.65466509    -0.67200
Ni1687     Ni  0.94920353  0.58278869  0.64270783     1.26300
O1688       O  0.89346703  0.61077724  0.67228410    -0.67500
O1689       O  0.94478697  0.54160603  0.65792272    -0.79700
C1690       C  0.95004910  0.58545402  0.56357841     0.83700
O1691       O  0.96230255  0.57962928  0.59278049    -0.66900
Ni1692     Ni  0.95577159  0.58337237  0.73414254     1.27400
Ni1693     Ni  0.93959967  0.63034455  0.67945235     1.26100
H1694       H  0.97154559  0.63912855  0.62489954     0.38200
O1695       O  0.52096121  0.73217586  0.90126289    -0.81700
O1696       O  0.53902989  0.73960968  0.07748052    -0.66400
O1697       O  0.51901832  0.71018079  0.97670393    -1.13000
C1698       C  0.94578819  0.74502276  0.99391765     1.05200
O1699       O  0.99040835  0.70694881  0.09394430    -0.79600
O1700       O  0.93761665  0.68283699  0.04574379    -0.67200
Ni1701     Ni  0.55009212  0.73003451  0.93844751     1.34900
C1702       C  0.93306691  0.66519755  0.01753421     0.83900
O1703       O  0.56309669  0.71551086  0.03038954    -0.80200
O1704       O  0.58084854  0.72657671  0.97084155    -0.90400
C1705       C  0.51976544  0.72132365  0.10204986     0.83500
O1706       O  0.56605602  0.77481216  0.95079927    -0.68600
O1707       O  0.94986424  0.74366094  0.02962027    -0.87900
C1708       C  0.57302242  0.78826572  0.98281708     0.84300
C1709       C  0.58211769  0.71807763  0.00511557     1.05900
H1710       H  0.50707767  0.75908831  0.01701630     0.37700
O1711       O  0.99809427  0.73623198  0.02057074    -1.10600
O1712       O  0.95265057  0.67458296  0.99014087    -0.67200
Ni1713     Ni  0.98406570  0.71781494  0.97245238     1.26300
O1714       O  0.56202492  0.77155250  0.01315584    -0.67500
O1715       O  0.95233416  0.73002966  0.96953511    -0.79700
C1716       C  0.99259672  0.71069091  0.89562689     0.83700
O1717       O  0.97347006  0.70039983  0.92290431    -0.66900
Ni1718     Ni  0.96954093  0.72464917  0.06054448     1.27400
Ni1719     Ni  0.53114739  0.72679259  0.02632373     1.26100
H1720       H  0.51194194  0.68749446  0.97749381     0.38200
O1721       O  0.56975750  0.66241275  0.23739058    -0.81700
O1722       O  0.52563869  0.61521098  0.40151203    -0.66400
O1723       O  0.53846727  0.65350149  0.30297055    -1.13000
C1724       C  0.63785594  0.71784772  0.35679359     1.05200
O1725       O  0.54010888  0.66297169  0.42405516    -0.79600
O1726       O  0.57970641  0.72253594  0.39038782    -0.67200
Ni1727     Ni  0.53303924  0.62874653  0.25951423     1.34900
C1728       C  0.57291031  0.73232826  0.35959745     0.83900
O1729       O  0.99020999  0.60305192  0.33934223    -0.80200
O1730       O  0.99500701  0.59420297  0.27869787    -0.90400
C1731       C  0.52407447  0.63258980  0.42701092     0.83500
O1732       O  0.55703661  0.60826739  0.27692998    -0.68600
O1733       O  0.62514466  0.70595305  0.38870967    -0.87900
C1734       C  0.55698755  0.59485116  0.30851482     0.84300
C1735       C  0.97919548  0.58833064  0.30886376     1.05900
H1736       H  0.58684700  0.65254819  0.35930708     0.37700
O1737       O  0.57393464  0.66291957  0.35968491    -1.10600
O1738       O  0.56559786  0.71545703  0.33020461    -0.67200
Ni1739     Ni  0.58013407  0.68626122  0.31340724     1.26300
O1740       O  0.54625338  0.60073980  0.33834266    -0.67500
O1741       O  0.62236158  0.71615958  0.32647298    -0.79700
C1742       C  0.57343829  0.69056127  0.23572672     0.83700
O1743       O  0.58311952  0.70731036  0.26503069    -0.66900
Ni1744     Ni  0.58284344  0.68490930  0.40533381     1.27400
Ni1745     Ni  0.53213297  0.63221728  0.35079779     1.26100
H1746       H  0.52456754  0.66275732  0.30061839     0.38200
C1747       C  0.52787030  0.68456463  0.19699044    -0.10000
C1748       C  0.56038940  0.70078137  0.20301231     0.06200
C1749       C  0.57895854  0.72570655  0.17786674    -0.03700
C1750       C  0.56517832  0.73240012  0.14591936    -0.08200
C1751       C  0.53253372  0.71528653  0.13874960     0.05300
C1752       C  0.51380771  0.69199773  0.16602080    -0.03200
Br1753     Br  0.96895465  0.66955752  0.16415745    -0.02900
H1754       H  0.51314964  0.66602086  0.21690287     0.09200
H1755       H  0.58033810  0.75095366  0.12634306     0.07300
Br1756     Br  0.62328600  0.75037215  0.18526253    -0.03300
C1757       C  0.94318115  0.66293234  0.81065315    -0.10000
C1758       C  0.96650583  0.66363324  0.78723369     0.06200
C1759       C  0.99815375  0.68304107  0.79780678    -0.03700
C1760       C  0.50583259  0.69952622  0.83178770    -0.08200
C1761       C  0.98258757  0.69692070  0.85691771     0.05300
C1762       C  0.95082197  0.67905883  0.84519309    -0.03200
Br1763     Br  0.91655955  0.67546172  0.87471880    -0.02900
H1764       H  0.91877074  0.64860950  0.80289332     0.09200
H1765       H  0.53034199  0.71331811  0.83939225     0.07300
Br1766     Br  0.53231652  0.68876845  0.76642121    -0.03300
C1767       C  0.96215559  0.61466056  0.50152699    -0.10000
C1768       C  0.96609421  0.59307677  0.52616454     0.06200
C1769       C  0.48738382  0.58231619  0.51569978    -0.03700
C1770       C  0.50525677  0.59449471  0.48265506    -0.08200
C1771       C  0.50269843  0.61769866  0.45964110     0.05300
C1772       C  0.98015515  0.62695248  0.46884169    -0.03200
Br1773     Br  0.97235036  0.65572054  0.43700970    -0.02900
H1774       H  0.94574518  0.62307637  0.50837668     0.09200
H1775       H  0.52190128  0.58646456  0.47549873     0.07300
Br1776     Br  0.49249895  0.55045208  0.54465257    -0.03300
C1777       C  0.72227749  0.76445611  0.32461542    -0.10000
C1778       C  0.73769350  0.77023064  0.35963317     0.06200
C1779       C  0.72087260  0.75447522  0.39216249    -0.03700
C1780       C  0.68855075  0.73678242  0.39007562    -0.08200
C1781       C  0.67236416  0.73411267  0.35581142     0.05300
C1782       C  0.68979203  0.74656517  0.32229002    -0.03200
Br1783     Br  0.67177482  0.74179893  0.27252930    -0.02900
H1784       H  0.73518591  0.77616995  0.29926871     0.09200
H1785       H  0.67612107  0.72610869  0.41598993     0.07300
Br1786     Br  0.74055692  0.75775620  0.44064440    -0.03300
C1787       C  0.90768219  0.51576819  0.27740284    -0.10000
C1788       C  0.89849406  0.99918352  0.31204951     0.06200
C1789       C  0.90940983  0.01620740  0.34580307    -0.03700
C1790       C  0.93430308  0.54706042  0.34417982    -0.08200
C1791       C  0.94743757  0.56139693  0.30935516     0.05300
C1792       C  0.93161549  0.54700757  0.27581761    -0.03200
Br1793     Br  0.94182500  0.56800941  0.22707643    -0.02900
H1794       H  0.89772476  0.00407291  0.25108632     0.09200
H1795       H  0.44470941  0.55878059  0.37033695     0.07300
Br1796     Br  0.89221497  0.99924592  0.39475468    -0.03300
C1797       C  0.79306527  0.78211730  0.17398454    -0.10000
C1798       C  0.78431224  0.79438437  0.14210503     0.06200
C1799       C  0.77852106  0.82046439  0.14648667    -0.03700
C1800       C  0.78426201  0.83542776  0.18133701    -0.08200
C1801       C  0.79528819  0.82453825  0.21221676     0.05300
C1802       C  0.79826499  0.79681406  0.20891734    -0.03200
Br1803     Br  0.81134800  0.77958175  0.25089934    -0.02900
H1804       H  0.79738690  0.76197769  0.17126342     0.09200
H1805       H  0.78194677  0.85681137  0.18369675     0.07300
Br1806     Br  0.76702291  0.83951842  0.10500141    -0.03300
C1807       C  0.92276922  0.80919977  0.99085942    -0.10000
C1808       C  0.89637464  0.79443511  0.96756650     0.06200
C1809       C  0.89367141  0.77044188  0.94328610    -0.03700
C1810       C  0.91204684  0.75575041  0.95008929    -0.08200
C1811       C  0.93334269  0.76564627  0.98013761     0.05300
C1812       C  0.94129123  0.79465233  0.99773575    -0.03200
Br1813     Br  0.97522965  0.81400523  0.03335415    -0.02900
H1814       H  0.92582486  0.82871071  0.00840784     0.09200
H1815       H  0.90741001  0.73470130  0.93454759     0.07300
Br1816     Br  0.86111953  0.75180476  0.90653293    -0.03300
C1817       C  0.62742681  0.72925069  0.04588680    -0.10000
C1818       C  0.60771958  0.71205802  0.01615899     0.06200
C1819       C  0.61525359  0.69278958  0.99414279    -0.03700
C1820       C  0.64487611  0.69547369  0.99751609    -0.08200
C1821       C  0.66689405  0.71763013  0.02210292     0.05300
C1822       C  0.65725368  0.73206521  0.04920312    -0.03200
Br1823     Br  0.68511784  0.76008661  0.08665357    -0.02900
H1824       H  0.62096578  0.74311586  0.06389596     0.09200
H1825       H  0.65197386  0.68338363  0.97759208     0.07300
Br1826     Br  0.58708874  0.66499707  0.95679281    -0.03300
C1827       C  0.83059101  0.76504049  0.80540552    -0.10000
C1828       C  0.84860661  0.79765057  0.79602811     0.06200
C1829       C  0.84583195  0.82026691  0.81847026    -0.03700
C1830       C  0.82559335  0.80998236  0.84926527    -0.08200
C1831       C  0.80839210  0.77757880  0.85901833     0.05300
C1832       C  0.81097786  0.75496520  0.83686801    -0.03200
Br1833     Br  0.78850252  0.71015566  0.84881056    -0.02900
H1834       H  0.83224107  0.74727388  0.78867233     0.09200
H1835       H  0.82416626  0.82755213  0.86663486     0.07300
Br1836     Br  0.86829832  0.86554944  0.80895754    -0.03300
C1837       C  0.95166068  0.98630130  0.66775776    -0.10000
C1838       C  0.93358811  0.99386330  0.69150338     0.06200
C1839       C  0.91277810  0.97031629  0.71705874    -0.03700
C1840       C  0.91060109  0.93992321  0.71839612    -0.08200
C1841       C  0.92854241  0.93255327  0.69423512     0.05300
C1842       C  0.94922979  0.95603135  0.66888363    -0.03200
Br1843     Br  0.97551397  0.94842257  0.63581332    -0.02900
H1844       H  0.96821208  0.00420869  0.64855943     0.09200
H1845       H  0.89420519  0.92174903  0.73745115     0.07300
Br1846     Br  0.88512737  0.97732068  0.74864953    -0.03300
C1847       C  0.91210366  0.71275828  0.60312783    -0.10000
C1848       C  0.91950345  0.70239596  0.63766295     0.06200
C1849       C  0.91388757  0.71403406  0.67130353    -0.03700
C1850       C  0.90069278  0.73462618  0.66971976    -0.08200
C1851       C  0.89268631  0.74437395  0.63521540     0.05300
C1852       C  0.89887401  0.73326569  0.60151833    -0.03200
Br1853     Br  0.88839012  0.74317585  0.55204515    -0.02900
H1854       H  0.91585351  0.70414396  0.57684043     0.09200
H1855       H  0.89650588  0.74294051  0.69597301     0.07300
Br1856     Br  0.92171624  0.70173318  0.72073901    -0.03300
C1857       C  0.91471673  0.87518239  0.49739754    -0.10000
C1858       C  0.90744994  0.88257991  0.53240575     0.06200
C1859       C  0.89521770  0.90405306  0.53406855    -0.03700
C1860       C  0.88663297  0.91440901  0.50075367    -0.08200
C1861       C  0.89060813  0.90401647  0.46578234     0.05300
C1862       C  0.90667812  0.88599571  0.46408052    -0.03200
Br1863     Br  0.91222242  0.86972904  0.41758238    -0.02900
H1864       H  0.92378290  0.85841153  0.49594252     0.09200
H1865       H  0.87390386  0.92782161  0.50236605     0.07300
Br1866     Br  0.88398922  0.91478130  0.58102194    -0.03300
C1867       C  0.72573727  0.91573830  0.38963059    -0.10000
C1868       C  0.71240105  0.91721362  0.35449731     0.06200
C1869       C  0.72162732  0.90676391  0.32255304    -0.03700
C1870       C  0.74268491  0.89437438  0.32658222    -0.08200
C1871       C  0.75487700  0.89159450  0.36206781     0.05300
C1872       C  0.74621325  0.90284846  0.39387094    -0.03200
Br1873     Br  0.75865061  0.89913684  0.44487298    -0.02900
H1874       H  0.71907382  0.92342253  0.41468133     0.09200
H1875       H  0.74897579  0.88614664  0.30170047     0.07300
Br1876     Br  0.70471689  0.90607264  0.27305462    -0.03300
C1877       C  0.99128596  0.93614865  0.33312951    -0.10000
C1878       C  0.49998474  0.91845898  0.30974325     0.06200
C1879       C  0.97674259  0.89532417  0.28631993    -0.03700
C1880       C  0.94600343  0.89088066  0.28610630    -0.08200
C1881       C  0.93758952  0.90881434  0.30920001     0.05300
C1882       C  0.96062506  0.93170000  0.33282653    -0.03200
Br1883     Br  0.95240091  0.95973120  0.36277657    -0.02900
H1884       H  0.50870816  0.95436282  0.35078311     0.09200
H1885       H  0.92851634  0.87316430  0.26799640     0.07300
Br1886     Br  0.98483860  0.86801452  0.25488949    -0.03300
C1887       C  0.56882093  0.52433829  0.27945936    -0.10000
C1888       C  0.59152548  0.52425568  0.30498697     0.06200
C1889       C  0.60238934  0.54777579  0.33330052    -0.03700
C1890       C  0.59091488  0.57029058  0.33494281    -0.08200
C1891       C  0.56832533  0.57009601  0.30890044     0.05300
C1892       C  0.55722069  0.54624740  0.28137821    -0.03200
Br1893     Br  0.52381348  0.54046961  0.24711473    -0.02900
H1894       H  0.55878112  0.50620852  0.25826616     0.09200
H1895       H  0.60004180  0.58827911  0.35636104     0.07300
Br1896     Br  0.63295155  0.05057472  0.37059631    -0.03300
C1897       C  0.58524356  0.81562778  0.32529893    -0.10000
C1898       C  0.59406851  0.83285705  0.35899019     0.06200
C1899       C  0.59230204  0.81538143  0.39284830    -0.03700
C1900       C  0.58333459  0.78266537  0.39212263    -0.08200
C1901       C  0.57587722  0.76559090  0.35836777     0.05300
C1902       C  0.57596311  0.78262003  0.32466869    -0.03200
Br1903     Br  0.56439660  0.76311356  0.27632182    -0.02900
H1904       H  0.58595254  0.82802525  0.29895266     0.09200
H1905       H  0.58350954  0.77078245  0.41855232     0.07300
Br1906     Br  0.60446142  0.83451108  0.44151863    -0.03300
C1907       C  0.68690132  0.93252722  0.15141532    -0.10000
C1908       C  0.70463697  0.96461674  0.13943930     0.06200
C1909       C  0.70281556  0.98825125  0.16089493    -0.03700
C1910       C  0.68334868  0.97962248  0.19250141    -0.08200
C1911       C  0.66523428  0.94764743  0.20414650     0.05300
C1912       C  0.66762206  0.92395804  0.18352395    -0.03200
Br1913     Br  0.64305265  0.87941740  0.19577997    -0.02900
H1914       H  0.68749921  0.91391865  0.13524176     0.09200
H1915       H  0.68191577  0.99820993  0.20779038     0.07300
Br1916     Br  0.72326178  0.53271595  0.14634462    -0.03300
C1917       C  0.63405935  0.87425168  0.01592912    -0.10000
C1918       C  0.64104402  0.89290374  0.98226517     0.06200
C1919       C  0.62344623  0.87679731  0.94977791    -0.03700
C1920       C  0.60126067  0.84380061  0.95114751    -0.08200
C1921       C  0.59524315  0.82467444  0.98434207     0.05300
C1922       C  0.61214801  0.84098964  0.01718649    -0.03200
Br1923     Br  0.60913187  0.81894637  0.06431897    -0.02900
H1924       H  0.64724646  0.88513264  0.04124131     0.09200
H1925       H  0.58895486  0.83285478  0.92539124     0.07300
Br1926     Br  0.62846983  0.89840129  0.90179225    -0.03300
C1927       C  0.85594176  0.59205385  0.05018628    -0.10000
C1928       C  0.83769810  0.58186356  0.01687669     0.06200
C1929       C  0.85375349  0.59624556  0.98261572    -0.03700
C1930       C  0.88520934  0.62173346  0.98285178    -0.08200
C1931       C  0.90240577  0.63344301  0.01668286     0.05300
C1932       C  0.88741322  0.61667639  0.05026810    -0.03200
Br1933     Br  0.90910596  0.62530933  0.09768451    -0.02900
H1934       H  0.84549492  0.58122395  0.07701053     0.09200
H1935       H  0.89585325  0.63317440  0.95632863     0.07300
Br1936     Br  0.83458299  0.58187794  0.93424413    -0.03300
C1937       C  0.75090424  0.63244817  0.04743665    -0.10000
C1938       C  0.75385692  0.61751850  0.01536459     0.06200
C1939       C  0.76982116  0.63660852  0.98380900    -0.03700
C1940       C  0.78366115  0.66980050  0.98556503    -0.08200
C1941       C  0.78232127  0.68494112  0.01841946     0.05300
C1942       C  0.76467003  0.66569339  0.04922428    -0.03200
Br1943     Br  0.75793673  0.68257075  0.09458676    -0.02900
H1944       H  0.73861036  0.61811050  0.07188002     0.09200
H1945       H  0.79662181  0.68385860  0.96130988     0.07300
Br1946     Br  0.77685114  0.61946288  0.93893938    -0.03300
C1947       C  0.76484174  0.89530107  0.96187945    -0.10000
C1948       C  0.74593934  0.89813277  0.98938639     0.06200
C1949       C  0.73212468  0.87377672  0.01738745    -0.03700
C1950       C  0.73634218  0.84689074  0.01613863    -0.08200
C1951       C  0.75414416  0.84368534  0.98773882     0.05300
C1952       C  0.76897540  0.86837688  0.96082014    -0.03200
Br1953     Br  0.79534271  0.86676391  0.92231422    -0.02900
H1954       H  0.77612344  0.91391205  0.94058741     0.09200
H1955       H  0.72439889  0.82762633  0.03650556     0.07300
Br1956     Br  0.70524195  0.87373743  0.05643837    -0.03300
C1957       C  0.73021980  0.55926980  0.80675415    -0.10000
C1958       C  0.70049767  0.55768907  0.80283185     0.06200
C1959       C  0.68107438  0.54831452  0.83517459    -0.03700
C1960       C  0.69007340  0.53780321  0.86835423    -0.08200
C1961       C  0.71884950  0.53765115  0.87121345     0.05300
C1962       C  0.73953455  0.54980094  0.84057328    -0.03200
Br1963     Br  0.77999850  0.55201492  0.84296801    -0.02900
H1964       H  0.74596331  0.56678858  0.78299035     0.09200
H1965       H  0.67429916  0.52941916  0.89212127     0.07300
Br1966     Br  0.64204902  0.54940917  0.83691788    -0.03300
C1967       C  0.79266683  0.58344948  0.67741502    -0.10000
C1968       C  0.77391033  0.57050219  0.64504905     0.06200
C1969       C  0.78780809  0.56326663  0.61481896    -0.03700
C1970       C  0.81951184  0.57013890  0.61672497    -0.08200
C1971       C  0.83912695  0.58506635  0.64810468     0.05300
C1972       C  0.82468023  0.59104537  0.67909874    -0.03200
Br1973     Br  0.84728643  0.61166314  0.72383716    -0.02900
H1974       H  0.78288512  0.58964731  0.70091560     0.09200
H1975       H  0.82913060  0.56471506  0.59245978     0.07300
Br1976     Br  0.76464151  0.54394559  0.56981425    -0.03300
C1977       C  0.53595903  0.57005367  0.64820678    -0.10000
C1978       C  0.53561116  0.58909374  0.67777175     0.06200
C1979       C  0.55915395  0.59696708  0.70594042    -0.03700
C1980       C  0.58099510  0.58518738  0.70501935    -0.08200
C1981       C  0.58068249  0.56510020  0.67632279     0.05300
C1982       C  0.55778727  0.55809804  0.64728379    -0.03200
Br1983     Br  0.55275293  0.52958812  0.60751589    -0.02900
H1984       H  0.51777160  0.56263269  0.62679490     0.09200
H1985       H  0.59823434  0.59155421  0.72751086     0.07300
Br1986     Br  0.06277622  0.62406542  0.74666436    -0.03300
C1987       C  0.55448766  0.93273397  0.63165729    -0.10000
C1988       C  0.57204907  0.93964360  0.66517599     0.06200
C1989       C  0.56195295  0.91719646  0.69518392    -0.03700
C1990       C  0.53192741  0.89160395  0.69414436    -0.08200
C1991       C  0.01168310  0.88849538  0.66372709     0.05300
C1992       C  0.52438995  0.90691026  0.63041648    -0.03200
Br1993     Br  0.00189750  0.90054939  0.58334655    -0.02900
H1994       H  0.56293613  0.94897701  0.60753059     0.09200
H1995       H  0.52352766  0.87614068  0.71891934     0.07300
Br1996     Br  0.58707051  0.92152205  0.73944480    -0.03300
C1997       C  0.77953254  0.71822673  0.69467103    -0.10000
C1998       C  0.77832481  0.73730635  0.66454353     0.06200
C1999       C  0.75602996  0.72355150  0.63574607    -0.03700
C2000       C  0.73932351  0.69062201  0.63372337    -0.08200
C2001       C  0.74412548  0.67109531  0.66061240     0.05300
C2002       C  0.76262769  0.68508203  0.69299982    -0.03200
Br2003     Br  0.76907822  0.66124982  0.73375923    -0.02900
H2004       H  0.79651822  0.72882862  0.71724198     0.09200
H2005       H  0.72352397  0.68034146  0.61003065     0.07300
Br2006     Br  0.75034514  0.74887744  0.59637256    -0.03300
C2007       C  0.60674527  0.98973062  0.52443088    -0.10000
C2008       C  0.63832548  0.51383681  0.52545987     0.06200
C2009       C  0.65651491  0.51921935  0.49265138    -0.03700
C2010       C  0.64353437  0.00011209  0.46110406    -0.08200
C2011       C  0.61254737  0.97534829  0.46094030     0.05300
C2012       C  0.59397005  0.97049353  0.49273088    -0.03200
Br2013     Br  0.55116130  0.93774529  0.49382815    -0.02900
H2014       H  0.59194148  0.98511540  0.54871110     0.09200
H2015       H  0.65800596  0.00416826  0.43658916     0.07300
Br2016     Br  0.69905722  0.55247120  0.48810692    -0.03300
loop_ 
_geom_bond_atom_site_label_1 
_geom_bond_atom_site_label_2 
_geom_bond_distance 
_geom_bond_site_symmetry_2 
_ccdc_geom_bond_type 
O1           Ni7   1.931       .  S
O1           C22   1.271       .  A
O2          Ni25   1.911       .  S
O2           C11   1.270       .  A
O3           Ni7   1.912       .  S
O3          Ni25   1.912       .  S
O3          Ni19   1.901       .  S
O3           H26   0.967       .  S
C4           O21   1.275       .  A
C4           O13   1.284       .  A
C4          C489   1.468       .  S
O5          Ni24   1.956       .  S
O5           C11   1.281       .  A
O6          Ni24   1.932       .  S
O6            C8   1.273       .  A
Ni7          O12   1.938       .  S
Ni7         O514   1.923   1_545  S
C8           O18   1.280       .  A
C8          C456   1.517       .  S
O9         Ni529   1.887       .  S
O9           C15   1.268       .  A
O10        Ni511   1.923       .  S
O10          C15   1.277       .  A
C11         C496   1.506       .  S
O12          C14   1.275       .  A
O13         Ni24   1.919       .  S
C14          O20   1.283       .  A
C14         C469   1.534       .  S
C15         C476   1.460       .  S
H16          O17   0.966       .  S
O17         Ni25   1.884       .  S
O17         Ni19   1.908       .  S
O17         Ni24   1.892       .  S
O18         Ni19   1.958       .  S
Ni19         O23   1.929       .  S
Ni19         O21   1.899       .  S
O20         Ni25   1.981       .  S
C22          O23   1.272       .  A
C22         C446   1.508       .  S
Ni25        O513   1.887   1_545  S
O27         Ni33   1.928   1_565  S
O27         C552   1.274       .  A
O28         Ni51   1.924       .  S
O28          C37   1.275       .  A
O29         Ni33   1.920       .  S
O29         Ni51   1.911   1_554  S
O29        Ni549   1.935   1_545  S
O29          H52   0.966       .  S
C30          O47   1.281   1_556  A
C30          O39   1.285       .  A
C30         C436   1.474       .  S
O31         Ni50   1.949       .  S
O31         C541   1.280       .  A
O32         Ni50   1.926       .  S
O32          C34   1.271       .  A
Ni33         O36   1.924       .  S
Ni33         O38   1.944       .  S
C34          O44   1.292   1_556  A
C34         C406   1.543       .  S
O35         Ni51   1.918       .  S
O35          C41   1.278   1_556  A
O36          C41   1.276       .  A
C37         O535   1.280   1_545  A
C37         C449   1.490       .  S
O38          C40   1.280       .  A
O39         Ni50   1.920       .  S
C40          O46   1.285   1_554  A
C40         C416   1.544       .  S
C41         C426   1.480       .  S
H42          O43   0.966       .  S
O43         Ni45   1.899   1_556  S
O43         Ni50   1.883       .  S
O43        Ni555   1.909       .  S
O44         Ni45   1.988       .  S
Ni45         O49   1.929       .  S
Ni45         O47   1.916       .  S
Ni45        O533   1.936       .  S
O46         Ni51   1.986       .  S
C48          O49   1.272       .  A
C48         O531   1.274       .  A
C48         C396   1.500       .  S
Ni51        O547   1.909   1_545  S
O53         Ni59   1.924       .  S
O53          C74   1.270       .  A
O54         Ni77   1.925       .  S
O54          C63   1.277       .  A
O55         Ni59   1.913       .  S
O55         Ni77   1.913       .  S
O55         Ni71   1.939       .  S
O55          H78   0.967       .  S
C56          O73   1.291       .  A
C56          O65   1.283       .  A
C56         C366   1.490   1_455  S
O57         Ni76   1.949       .  S
O57          C63   1.283       .  A
O58         Ni76   1.932       .  S
O58          C60   1.274       .  A
Ni59         O62   1.930       .  S
Ni59         O64   1.921       .  S
C60          O70   1.278       .  A
C60         C880   1.530       .  S
O61         Ni77   1.930       .  S
O61          C67   1.278       .  A
O62          C67   1.277       .  A
C63         C399   1.499       .  S
O64          C66   1.273       .  A
O65         Ni76   1.925       .  S
C66          O72   1.284       .  A
C66         C386   1.517       .  S
C67         C356   1.498       .  S
H68          O69   0.966       .  S
O69         Ni77   1.913       .  S
O69         Ni71   1.895       .  S
O69         Ni76   1.885       .  S
O70         Ni71   1.955       .  S
Ni71         O75   1.923       .  S
Ni71         O73   1.947       .  S
O72         Ni77   1.974       .  S
C74          O75   1.269       .  A
C74         C499   1.483       .  S
O79         Ni85   1.926       .  S
O79         C100   1.271       .  A
O80        Ni103   1.902       .  S
O80          C89   1.268       .  A
O81         Ni85   1.902       .  S
O81        Ni103   1.906       .  S
O81         Ni97   1.905       .  S
O81         H104   0.965       .  S
C82          O99   1.272       .  A
C82          O91   1.280       .  A
C82         C479   1.475       .  S
O83        Ni102   1.936       .  S
O83          C89   1.274       .  A
O84        Ni102   1.918       .  S
O84          C86   1.268       .  A
Ni85         O88   1.919       .  S
Ni85         O90   1.911       .  S
C86          O96   1.264       .  A
C86         C329   1.465       .  S
O87        Ni103   1.889       .  S
O87          C93   1.263       .  A
O88          C93   1.273       .  A
C89         C316   1.486       .  S
O90          C92   1.272       .  A
O91        Ni102   1.916       .  S
C92          O98   1.282       .  A
C92         C339   1.496       .  S
C93         C486   1.452       .  S
H94          O95   0.966       .  S
O95        Ni103   1.883       .  S
O95         Ni97   1.888       .  S
O95        Ni102   1.892       .  S
O96         Ni97   1.903       .  S
Ni97        O101   1.896       .  S
Ni97         O99   1.900       .  S
O98        Ni103   1.957       .  S
C100        O101   1.263       .  A
C100        C346   1.465       .  S
O105       Ni111   1.920       .  S
O105        C126   1.270       .  A
O106       Ni129   1.891       .  S
O106        C115   1.257       .  A
O107       Ni111   1.915       .  S
O107       Ni129   1.915   1_554  S
O107       Ni123   1.915       .  S
O107        H130   0.966       .  S
C108        O125   1.268       .  A
C108        O117   1.280   1_554  A
C108        C309   1.450       .  S
O109       Ni128   1.948       .  S
O109        C115   1.271       .  A
O110       Ni128   1.896       .  S
O110        C112   1.265       .  A
Ni111       O114   1.924       .  S
Ni111       O116   1.914       .  S
C112        O122   1.268   1_556  A
C112        C439   1.462       .  S
O113       Ni129   1.882       .  S
O113        C119   1.255       .  A
O114        C119   1.273   1_554  A
C115        C319   1.472       .  S
O116        C118   1.272       .  A
O117       Ni128   1.916       .  S
C118        O124   1.277   1_554  A
C118        C429   1.489       .  S
C119        C296   1.447       .  S
H120        O121   0.966       .  S
O121       Ni129   1.867       .  S
O121       Ni123   1.910   1_556  S
O121       Ni128   1.903       .  S
O122       Ni123   1.915       .  S
Ni123       O127   1.917       .  S
Ni123       O125   1.887       .  S
O124       Ni129   1.941       .  S
C126        O127   1.269       .  A
C126        C286   1.482       .  S
O131       Ni137   1.922       .  S
O131        C152   1.269       .  A
O132       Ni155   1.911       .  S
O132        C141   1.269       .  A
O133       Ni137   1.908       .  S
O133       Ni155   1.908       .  S
O133       Ni149   1.907       .  S
O133        H156   0.970       .  S
C134        O151   1.275       .  A
C134        O143   1.280       .  A
C134        C276   1.468       .  S
O135       Ni154   1.933       .  S
O135        C141   1.275       .  A
O136       Ni154   1.926       .  S
O136        C138   1.270       .  A
Ni137       O140   1.919       .  S
Ni137       O142   1.908       .  S
C138        O148   1.266       .  A
C138        C369   1.481       .  S
O139       Ni155   1.886       .  S
O139        C145   1.263       .  A
O140        C145   1.271       .  A
C141        C289   1.471       .  S
O142        C144   1.271       .  A
O143       Ni154   1.912       .  S
C144        O150   1.283       .  A
C144        C359   1.499       .  S
C145        C266   1.456       .  S
H146        O147   0.966       .  S
O147       Ni155   1.881       .  S
O147       Ni149   1.887       .  S
O147       Ni154   1.889       .  S
O148       Ni149   1.913       .  S
Ni149       O153   1.900       .  S
Ni149       O151   1.900       .  S
O150       Ni155   1.965       .  S
C152        O153   1.264       .  A
C152        C349   1.466       .  S
O157       Ni163   1.924       .  S
O157        C178   1.271       .  A
O158       Ni181   1.936       .  S
O158        C167   1.281       .  A
O159       Ni163   1.915       .  S
O159       Ni181   1.913       .  S
O159       Ni175   1.942       .  S
O159        H182   0.967       .  S
C160        O177   1.288       .  A
C160        O169   1.282       .  A
C160        C830   1.474   1_545  S
O161       Ni180   1.938       .  S
O161        C167   1.279       .  A
O162       Ni180   1.932       .  S
O162       C1172   1.272       .  A
Ni163       O166   1.932       .  S
Ni163       O168   1.922       .  S
C164       O1170   1.272   1_455  A
C164       O1182   1.284   1_455  A
C164        C466   1.527       .  S
O165       Ni181   1.927       .  S
O165        C171   1.279       .  A
O166        C171   1.278       .  A
C167        C246   1.499       .  S
O168        C170   1.275       .  A
O169       Ni180   1.918       .  S
C170        O176   1.288       .  A
C170        C459   1.531       .  S
C171        C336   1.499       .  S
H172        O173   0.966       .  S
O173       Ni181   1.914       .  S
O173       Ni175   1.894       .  S
O173       Ni180   1.886       .  S
O174       Ni175   1.966       .  S
O174       C1172   1.285       .  A
Ni175       O179   1.929       .  S
Ni175       O177   1.933       .  S
O176       Ni181   1.988       .  S
C178        O179   1.272       .  A
C178        C256   1.499       .  S
O183       Ni189   1.949       .  S
O183       C1212   1.280   1_455  A
O184       Ni207   1.905       .  S
O184        C193   1.269       .  A
O185       Ni189   1.915       .  S
O185       Ni207   1.915   1_556  S
O185      Ni1209   1.899   1_455  S
O185        H208   0.967       .  S
C186        O203   1.275       .  A
C186        O195   1.282   1_556  A
C186        C299   1.447       .  S
O187       Ni206   1.961       .  S
O187       C1201   1.282       .  A
O188       Ni206   1.934       .  S
O188        C190   1.274       .  A
Ni189       O192   1.930       .  S
Ni189       O194   1.954       .  S
C190        O200   1.288   1_554  A
C190        C419   1.538       .  S
O191       Ni207   1.870       .  S
O191        C197   1.263       .  A
O192        C197   1.280   1_556  A
C193       O1195   1.282   1_455  A
C193        C239   1.508       .  S
O194        C196   1.279       .  A
O195       Ni206   1.912       .  S
C196        O202   1.284   1_556  A
C196        C409   1.550       .  S
C197        C306   1.446       .  S
H198       O1207   0.966   1_455  S
O199       Ni201   1.903   1_554  S
O199       Ni206   1.884       .  S
O199      Ni1215   1.866       .  S
O199       H1206   0.966       .  S
O200       Ni201   1.986       .  S
Ni201       O205   1.920       .  S
Ni201       O203   1.889       .  S
Ni201      O1193   1.899       .  S
O202       Ni207   1.987       .  S
C204        O205   1.272       .  A
C204       O1191   1.280       .  A
C204        C249   1.508       .  S
Ni207      O1207   1.866   1_455  S
O209       Ni215   1.907       .  S
O209        C230   1.267       .  A
O210       Ni233   1.921       .  S
O210        C219   1.273       .  A
O211       Ni215   1.907       .  S
O211       Ni233   1.904       .  S
O211       Ni227   1.914       .  S
O211        H234   0.967       .  S
C212        O229   1.281       .  A
C212        O221   1.282       .  A
C212        C269   1.474       .  S
O213       Ni232   1.947       .  S
O213        C219   1.280       .  A
O214       Ni232   1.929       .  S
O214        C216   1.273       .  A
Ni215       O220   1.925       .  S
Ni215      O1226   1.917   1_455  S
C216        O226   1.274       .  A
C216        C389   1.522       .  S
O217      Ni1241   1.884       .  S
O217        C223   1.269       .  A
O218      Ni1223   1.917       .  S
O218        C223   1.275       .  A
C219        C259   1.491       .  S
O220        C222   1.273       .  A
O221       Ni232   1.905       .  S
C222        O228   1.285       .  A
C222        C379   1.521       .  S
C223        C279   1.464       .  S
H224        O225   0.966       .  S
O225       Ni233   1.880       .  S
O225       Ni227   1.902       .  S
O225       Ni232   1.884       .  S
O226       Ni227   1.948       .  S
Ni227       O231   1.935       .  S
Ni227       O229   1.914       .  S
O228       Ni233   1.988       .  S
C230        O231   1.269       .  A
C230        C236   1.488       .  S
Ni233      O1225   1.884   1_455  S
C235        C236   1.403       .  A
C235        C240   1.405       .  A
C235        H242   1.084       .  S
C236        C237   1.405       .  A
C237        C238   1.408       .  A
C237       Br244   1.915       .  S
C238        C239   1.417       .  A
C238        H243   1.083       .  S
C239        C240   1.418       .  A
C240      Br1249   1.915   1_455  S
Br241      C1248   1.915       .  S
C245        C246   1.406       .  A
C245        C250   1.413       .  A
C245        H252   1.083       .  S
C246        C247   1.414       .  A
C247       C1256   1.404       .  A
C247      Br1262   1.921       .  S
C248       C1255   1.404   1_455  A
C248       C1257   1.408   1_455  A
C248        H253   1.083       .  S
C249        C250   1.421       .  A
C249       C1256   1.408       .  A
C250       Br251   1.920       .  S
Br254      C1255   1.921   1_455  S
C255        C256   1.409       .  A
C255        C260   1.403       .  A
C255        H262   1.083       .  S
C256       C1265   1.416       .  A
C257        C258   1.410   1_655  A
C257       C1264   1.416       .  A
C257       Br264   1.918       .  S
C258        C259   1.407       .  A
C258        H263   1.083       .  S
C259       C1268   1.409   1_455  A
C260       C1267   1.409       .  A
C260       Br261   1.919       .  S
C265        C266   1.401       .  A
C265        C270   1.393       .  A
C265        H272   1.084       .  S
C266        C267   1.403       .  A
C267        C268   1.385       .  A
C267       Br274   1.923       .  S
C268        C269   1.409       .  A
C268        H273   1.083       .  S
C269        C270   1.417       .  A
C270       Br271   1.924       .  S
C275        C280   1.387       .  A
C275        C780   1.404   1_545  A
C275        H786   1.083       .  S
C276        C277   1.413       .  A
C276        C779   1.404       .  A
C277        C782   1.389       .  A
C277       Br284   1.925       .  S
C278        C279   1.403       .  A
C278        C781   1.389       .  A
C278       H1291   1.084       .  S
C279        C280   1.409       .  A
C280       Br281   1.924       .  S
H282        C779   1.083       .  S
H283       C1286   1.084       .  S
C285        C286   1.406       .  A
C285        C290   1.400       .  A
C285        H292   1.084       .  S
C286        C287   1.413       .  A
C287        C288   1.402       .  A
C287       Br294   1.916       .  S
C288        C289   1.400       .  A
C288        H293   1.084       .  S
C289        C290   1.405       .  A
C290       Br291   1.918       .  S
C295        C296   1.397       .  A
C295        C300   1.387       .  A
C295        H302   1.084   1_556  S
C296        C297   1.407       .  A
C297        C298   1.386       .  A
C297       Br304   1.905       .  S
C298        C299   1.395       .  A
C298        H303   1.084       .  S
C299        C300   1.409       .  A
C300       Br301   1.922   1_556  S
C305        C306   1.400       .  A
C305        C310   1.392       .  A
C305        H312   1.084       .  S
C306        C307   1.401   1_554  A
C307        C308   1.385       .  A
C307       Br314   1.919       .  S
C308        C309   1.400   1_556  A
C308        H313   1.084       .  S
C309        C310   1.408       .  A
C310       Br311   1.921       .  S
C315        C316   1.408       .  A
C315        C320   1.401       .  A
C315        H322   1.083       .  S
C316        C317   1.418       .  A
C317        C318   1.399       .  A
C317       Br324   1.923       .  S
C318        C319   1.399       .  A
C318        H323   1.084       .  S
C319        C320   1.407       .  A
C320       Br321   1.919       .  S
C325        C326   1.401       .  A
C325        C330   1.391       .  A
C325        H332   1.084       .  S
C326        C664   1.474       .  S
C326        C327   1.415       .  A
C327        C328   1.402       .  A
C327       Br334   1.920       .  S
C328        C329   1.400       .  A
C328        H333   1.083       .  S
C329        C330   1.407       .  A
C330       Br331   1.916       .  S
C335        C336   1.410       .  A
C335        C340   1.402       .  A
C335        H342   1.083       .  S
C336        C337   1.416       .  A
C337        C338   1.404       .  A
C337       Br344   1.920       .  S
C338        C339   1.408       .  A
C338        H343   1.083       .  S
C339        C340   1.416       .  A
C340       Br341   1.924       .  S
C345        C346   1.399       .  A
C345        C350   1.396       .  A
C345        H352   1.084       .  S
C346        C347   1.410       .  A
C347        C348   1.398       .  A
C347       Br354   1.921       .  S
C348        C349   1.400       .  A
C348        H353   1.084       .  S
C349        C350   1.412       .  A
C350       Br351   1.921       .  S
C355        C356   1.407       .  A
C355        C360   1.400       .  A
C355        H362   1.084       .  S
C356        C357   1.415       .  A
C357        C358   1.406       .  A
C357       Br364   1.917       .  S
C358        C359   1.409       .  A
C358        H363   1.083       .  S
C359        C360   1.418       .  A
C360       Br361   1.925       .  S
C365        C370   1.400       .  A
C365       C1374   1.404       .  A
C365       H1380   1.084       .  S
C366       C1373   1.404       .  A
C366       C1375   1.419       .  A
C367        C368   1.404       .  A
C367       C1374   1.419       .  A
C367       Br374   1.921       .  S
C368        C369   1.400       .  A
C368        H373   1.083       .  S
C369        C370   1.413       .  A
C370       Br371   1.920       .  S
H372       C1373   1.084   1_455  S
C375        C376   1.412       .  A
C375        C380   1.407       .  A
C375        H382   1.083       .  S
C376        C564   1.529   1_545  S
C376        C377   1.424       .  A
C377        C378   1.429       .  A
C377       Br888   1.918       .  S
C378        C379   1.415       .  A
C378        H383   1.083       .  S
C379        C380   1.414       .  A
C380       Br381   1.922       .  S
Br384       C881   1.918       .  S
C385        C386   1.411       .  A
C385        C390   1.417       .  A
C385        H392   1.083       .  S
C386        C387   1.422       .  A
C387        C388   1.407       .  A
C387       Br394   1.924       .  S
C388        C389   1.410       .  A
C388        H393   1.083       .  S
C389        C390   1.424       .  A
C390       Br391   1.918       .  S
C395        C396   1.410       .  A
C395        C400   1.413       .  A
C395        H402   1.083       .  S
C396        C397   1.417       .  A
C397        C398   1.403       .  A
C397       Br908   1.921       .  S
C398        C399   1.404       .  A
C398        H403   1.084       .  S
C399        C400   1.415       .  A
C400       Br401   1.918       .  S
Br404       C901   1.921   1_545  S
C405        C406   1.414   1_554  A
C405        C410   1.429       .  A
C405        H412   1.083       .  S
C406        C407   1.426       .  A
C407        C408   1.423       .  A
C407       Br414   1.922       .  S
C408        C409   1.415       .  A
C408        H413   1.083       .  S
C409        C410   1.429   1_556  A
C410       Br411   1.919       .  S
C415        C416   1.413       .  A
C415        C420   1.416       .  A
C415        H422   1.083       .  S
C416        C417   1.428   1_554  A
C417        C418   1.430       .  A
C417       Br424   1.917       .  S
C418        C419   1.415   1_556  A
C418        H423   1.083       .  S
C419        C420   1.420       .  A
C420       Br421   1.913       .  S
C425        C426   1.406       .  A
C425        C430   1.400       .  A
C425        H432   1.084       .  S
C426        C427   1.410   1_554  A
C427        C428   1.397       .  A
C427       Br434   1.920       .  S
C428        C429   1.408   1_556  A
C428        H433   1.083       .  S
C429        C430   1.416       .  A
C430       Br431   1.923       .  S
C435        C436   1.406       .  A
C435        C440   1.392       .  A
C435        H442   1.083       .  S
C436        C437   1.416   1_556  A
C437        C438   1.393       .  A
C437       Br444   1.924       .  S
C438        C439   1.400   1_554  A
C438        H443   1.084       .  S
C439        C440   1.405       .  A
C440       Br441   1.920       .  S
C445        C446   1.413       .  A
C445        C450   1.409       .  A
C445        H452   1.083       .  S
C446        C447   1.422       .  A
C447        C448   1.407       .  A
C447       Br454   1.922       .  S
C448        C449   1.402       .  A
C448        H453   1.084       .  S
C449        C450   1.408       .  A
C450       Br451   1.917       .  S
C455        C456   1.411       .  A
C455        C460   1.418       .  A
C455        H462   1.084       .  S
C456        C457   1.414       .  A
C457        C458   1.413       .  A
C457       Br464   1.920       .  S
C458        C459   1.418       .  A
C458        H463   1.083       .  S
C459        C460   1.423       .  A
C460       Br461   1.919       .  S
C465        C466   1.413       .  A
C465        C470   1.424       .  A
C465        H472   1.082       .  S
C466        C467   1.418       .  A
C467        C468   1.418       .  A
C467      Br1482   1.918       .  S
C468        C469   1.414       .  A
C468        H473   1.083       .  S
C469        C470   1.423       .  A
C470       Br471   1.919       .  S
Br474      C1475   1.918       .  S
C475        C476   1.400       .  A
C475        C480   1.394       .  A
C475        H482   1.084       .  S
C476        C477   1.405       .  A
C477        C478   1.387       .  A
C477       Br484   1.921       .  S
C478       C1487   1.404       .  A
C478        H483   1.083       .  S
C479       C1486   1.404       .  A
C479       C1488   1.417       .  A
C480       C1487   1.418       .  A
C480      Br1489   1.925       .  S
Br481      C1488   1.925       .  S
C485        C486   1.401       .  A
C485        C490   1.395       .  A
C485        H492   1.084       .  S
C486        C487   1.401       .  A
C487        C488   1.386       .  A
C487       Br494   1.920       .  S
C488        C489   1.405       .  A
C488        H493   1.084       .  S
C489        C490   1.415       .  A
C490       Br491   1.924       .  S
C495        C500   1.408       .  A
C495       C1000   1.416       .  A
C495        H502   1.083       .  S
C496        C497   1.419       .  A
C496        C999   1.416   1_545  A
C497       C1002   1.405       .  A
C497       Br504   1.921       .  S
C498        C499   1.403       .  A
C498       C1001   1.405       .  A
C498        H503   1.084       .  S
C499        C500   1.403       .  A
C500       Br501   1.916       .  S
O505       Ni511   1.930       .  S
O505        C526   1.271       .  A
O506       Ni529   1.911       .  S
O506        C515   1.270       .  A
O507       Ni511   1.912       .  S
O507       Ni529   1.912       .  S
O507       Ni523   1.901       .  S
O507        H530   0.967       .  S
C508        O525   1.275       .  A
C508        O517   1.284       .  A
C508        C993   1.468       .  S
O509       Ni528   1.956       .  S
O509        C515   1.281       .  A
O510       Ni528   1.932       .  S
O510        C512   1.273       .  A
Ni511       O516   1.938       .  S
C512        O522   1.280       .  A
C512        C960   1.517       .  S
O513        C519   1.268       .  A
O514        C519   1.277       .  A
C515       C1000   1.506       .  S
O516        C518   1.275       .  A
O517       Ni528   1.919       .  S
C518        O524   1.283       .  A
C518        C973   1.534       .  S
C519        C980   1.460       .  S
H520        O521   0.966       .  S
O521       Ni529   1.884       .  S
O521       Ni523   1.908       .  S
O521       Ni528   1.892       .  S
O522       Ni523   1.958       .  S
Ni523       O527   1.929       .  S
Ni523       O525   1.899       .  S
O524       Ni529   1.981       .  S
C526        O527   1.272       .  A
C526        C950   1.508       .  S
O531       Ni537   1.928       .  S
O532       Ni555   1.924       .  S
O532        C541   1.275       .  A
O533       Ni537   1.920       .  S
O533       Ni555   1.911   1_554  S
O533        H556   0.966       .  S
C534        O551   1.281   1_556  A
C534        O543   1.285       .  A
C534        C940   1.474       .  S
O535       Ni554   1.949       .  S
O536       Ni554   1.926       .  S
O536        C538   1.271       .  A
Ni537       O540   1.924       .  S
Ni537       O542   1.944       .  S
C538        O548   1.292   1_556  A
C538        C910   1.543       .  S
O539       Ni555   1.918       .  S
O539        C545   1.278   1_556  A
O540        C545   1.276       .  A
C541        C953   1.490       .  S
O542        C544   1.280       .  A
O543       Ni554   1.920       .  S
C544        O550   1.285   1_554  A
C544        C920   1.544       .  S
C545        C930   1.480       .  S
H546        O547   0.966       .  S
O547       Ni549   1.900   1_556  S
O547       Ni554   1.883       .  S
O548       Ni549   1.988       .  S
Ni549       O553   1.930       .  S
Ni549       O551   1.916       .  S
O550       Ni555   1.987       .  S
C552        O553   1.272       .  A
C552        C900   1.501       .  S
O557       Ni563   1.925       .  S
O557        C578   1.270       .  A
O558       Ni581   1.925       .  S
O558        C567   1.277       .  A
O559       Ni563   1.912       .  S
O559       Ni581   1.913       .  S
O559       Ni575   1.939       .  S
O559        H582   0.967       .  S
C560        O577   1.291       .  A
C560        O569   1.284       .  A
C560        C870   1.490   1_455  S
O561       Ni580   1.950       .  S
O561        C567   1.283       .  A
O562       Ni580   1.931       .  S
O562        C564   1.274       .  A
Ni563       O566   1.930       .  S
Ni563       O568   1.922       .  S
C564        O574   1.278       .  A
O565       Ni581   1.929       .  S
O565        C571   1.278       .  A
O566        C571   1.277       .  A
C567        C903   1.499       .  S
O568        C570   1.273       .  A
O569       Ni580   1.925       .  S
C570        O576   1.284       .  A
C570        C890   1.518       .  S
C571        C860   1.498       .  S
H572        O573   0.966       .  S
O573       Ni581   1.912       .  S
O573       Ni575   1.895       .  S
O573       Ni580   1.885       .  S
O574       Ni575   1.954       .  S
Ni575       O579   1.923       .  S
Ni575       O577   1.947       .  S
O576       Ni581   1.974       .  S
C578        O579   1.269       .  A
C578       C1003   1.483       .  S
O583       Ni589   1.927       .  S
O583        C604   1.271       .  A
O584       Ni607   1.902       .  S
O584        C593   1.268       .  A
O585       Ni589   1.902       .  S
O585       Ni607   1.906       .  S
O585       Ni601   1.906       .  S
O585        H608   0.965       .  S
C586        O603   1.272       .  A
C586        O595   1.280       .  A
C586        C983   1.475       .  S
O587       Ni606   1.935       .  S
O587        C593   1.274       .  A
O588       Ni606   1.918       .  S
O588        C590   1.268       .  A
Ni589       O592   1.919       .  S
Ni589       O594   1.911       .  S
C590        O600   1.264       .  A
C590        C833   1.465       .  S
O591       Ni607   1.889       .  S
O591        C597   1.263       .  A
O592        C597   1.273       .  A
C593        C820   1.486       .  S
O594        C596   1.272       .  A
O595       Ni606   1.916       .  S
C596        O602   1.282       .  A
C596        C843   1.496       .  S
C597        C990   1.452       .  S
H598        O599   0.966       .  S
O599       Ni607   1.883       .  S
O599       Ni601   1.888       .  S
O599       Ni606   1.892       .  S
O600       Ni601   1.904       .  S
Ni601       O605   1.896       .  S
Ni601       O603   1.901       .  S
O602       Ni607   1.957       .  S
C604        O605   1.263       .  A
C604        C850   1.465       .  S
O609       Ni615   1.920       .  S
O609        C630   1.270       .  A
O610       Ni633   1.891       .  S
O610        C619   1.257       .  A
O611       Ni615   1.915       .  S
O611       Ni633   1.915   1_554  S
O611       Ni627   1.914       .  S
O611        H634   0.966       .  S
C612        O629   1.268       .  A
C612        O621   1.280   1_554  A
C612        C813   1.450       .  S
O613       Ni632   1.948       .  S
O613        C619   1.271       .  A
O614       Ni632   1.896       .  S
O614        C616   1.265       .  A
Ni615       O618   1.924       .  S
Ni615       O620   1.914       .  S
C616        O626   1.268   1_556  A
C616        C943   1.462       .  S
O617       Ni633   1.882       .  S
O617        C623   1.255       .  A
O618        C623   1.273   1_554  A
C619        C823   1.472       .  S
O620        C622   1.272       .  A
O621       Ni632   1.916       .  S
C622        O628   1.277   1_554  A
C622        C933   1.489       .  S
C623        C800   1.446       .  S
H624        O625   0.966       .  S
O625       Ni633   1.867       .  S
O625       Ni627   1.910   1_556  S
O625       Ni632   1.903       .  S
O626       Ni627   1.915       .  S
Ni627       O631   1.917       .  S
Ni627       O629   1.887       .  S
O628       Ni633   1.942       .  S
C630        O631   1.269       .  A
C630        C790   1.482       .  S
O635       Ni641   1.922       .  S
O635        C656   1.269       .  A
O636       Ni659   1.911       .  S
O636        C645   1.269       .  A
O637       Ni641   1.907       .  S
O637       Ni659   1.908       .  S
O637       Ni653   1.907       .  S
O637        H660   0.970       .  S
C638        O655   1.275       .  A
C638        O647   1.280       .  A
C638        C780   1.468       .  S
O639       Ni658   1.933       .  S
O639        C645   1.275       .  A
O640       Ni658   1.927       .  S
O640        C642   1.270       .  A
Ni641       O644   1.919       .  S
Ni641       O646   1.907       .  S
C642        O652   1.266       .  A
C642        C873   1.481       .  S
O643       Ni659   1.887       .  S
O643        C649   1.264       .  A
O644        C649   1.271       .  A
C645        C793   1.471       .  S
O646        C648   1.270       .  A
O647       Ni658   1.912       .  S
C648        O654   1.283       .  A
C648        C863   1.498       .  S
C649        C770   1.457       .  S
H650        O651   0.966       .  S
O651       Ni659   1.882       .  S
O651       Ni653   1.887       .  S
O651       Ni658   1.889       .  S
O652       Ni653   1.912       .  S
Ni653       O657   1.899       .  S
Ni653       O655   1.900       .  S
O654       Ni659   1.965       .  S
C656        O657   1.264       .  A
C656        C853   1.466       .  S
O661       Ni667   1.924       .  S
O661        C682   1.271       .  A
O662       Ni685   1.936       .  S
O662        C671   1.281       .  A
O663       Ni667   1.915       .  S
O663       Ni685   1.913       .  S
O663       Ni679   1.942       .  S
O663        H686   0.967       .  S
C664        O681   1.288       .  A
C664        O673   1.282       .  A
O665       Ni684   1.938       .  S
O665        C671   1.279       .  A
O666       Ni684   1.932       .  S
O666       C1676   1.272       .  A
Ni667       O670   1.932       .  S
Ni667       O672   1.922       .  S
C668       O1674   1.272   1_455  A
C668       O1686   1.284   1_455  A
C668        C970   1.527       .  S
O669       Ni685   1.927       .  S
O669        C675   1.279       .  A
O670        C675   1.278       .  A
C671        C750   1.500       .  S
O672        C674   1.275       .  A
O673       Ni684   1.918       .  S
C674        O680   1.288       .  A
C674        C963   1.531       .  S
C675        C840   1.499       .  S
H676        O677   0.966       .  S
O677       Ni685   1.914       .  S
O677       Ni679   1.894       .  S
O677       Ni684   1.887       .  S
O678       Ni679   1.966       .  S
O678       C1676   1.284       .  A
Ni679       O683   1.929       .  S
Ni679       O681   1.933       .  S
O680       Ni685   1.988       .  S
C682        O683   1.272       .  A
C682        C760   1.499       .  S
O687       Ni693   1.949       .  S
O687       C1716   1.280   1_455  A
O688       Ni711   1.905       .  S
O688        C697   1.269       .  A
O689       Ni693   1.915       .  S
O689       Ni711   1.915   1_556  S
O689      Ni1713   1.899   1_455  S
O689        H712   0.967       .  S
C690        O707   1.275       .  A
C690        O699   1.282   1_556  A
C690        C803   1.447       .  S
O691       Ni710   1.961       .  S
O691       C1705   1.282       .  A
O692       Ni710   1.934       .  S
O692        C694   1.274       .  A
Ni693       O696   1.930       .  S
Ni693       O698   1.955       .  S
C694        O704   1.288   1_554  A
C694        C923   1.538       .  S
O695       Ni711   1.870       .  S
O695        C701   1.263       .  A
O696        C701   1.280   1_556  A
C697       O1699   1.282   1_455  A
C697        C743   1.508       .  S
O698        C700   1.280       .  A
O699       Ni710   1.912       .  S
C700        O706   1.284   1_556  A
C700        C913   1.550       .  S
C701        C810   1.446       .  S
H702       O1711   0.966   1_455  S
O703      Ni1719   1.866       .  S
O703       Ni705   1.903   1_554  S
O703       Ni710   1.884       .  S
O703       H1710   0.966       .  S
O704       Ni705   1.986       .  S
Ni705       O709   1.920       .  S
Ni705       O707   1.889       .  S
Ni705      O1697   1.899       .  S
O706       Ni711   1.987       .  S
C708       O1695   1.280       .  A
C708        O709   1.272       .  A
C708        C753   1.508       .  S
Ni711      O1711   1.866   1_455  S
O713       Ni719   1.906       .  S
O713        C734   1.267       .  A
O714       Ni737   1.920       .  S
O714        C723   1.272       .  A
O715       Ni719   1.907       .  S
O715       Ni737   1.904       .  S
O715       Ni731   1.914       .  S
O715        H738   0.967       .  S
C716        O733   1.281       .  A
C716        O725   1.282       .  A
C716        C773   1.475       .  S
O717       Ni736   1.948       .  S
O717        C723   1.280       .  A
O718       Ni736   1.930       .  S
O718        C720   1.273       .  A
Ni719      O1730   1.917   1_455  S
Ni719       O724   1.925       .  S
C720        O730   1.274       .  A
C720        C893   1.522       .  S
O721      Ni1745   1.884       .  S
O721        C727   1.269       .  A
O722      Ni1727   1.917       .  S
O722        C727   1.276       .  A
C723        C763   1.491       .  S
O724        C726   1.273       .  A
O725       Ni736   1.905       .  S
C726        O732   1.285       .  A
C726        C883   1.521       .  S
C727        C783   1.464       .  S
H728        O729   0.966       .  S
O729       Ni737   1.880       .  S
O729       Ni731   1.902       .  S
O729       Ni736   1.884       .  S
O730       Ni731   1.948       .  S
Ni731       O735   1.935       .  S
Ni731       O733   1.915       .  S
O732       Ni737   1.988       .  S
C734        O735   1.269       .  A
C734        C740   1.488       .  S
Ni737      O1729   1.884   1_455  S
C739        C740   1.403       .  A
C739        C744   1.405       .  A
C739        H746   1.084       .  S
C740        C741   1.405       .  A
C741        C742   1.408       .  A
C741       Br748   1.915       .  S
C742        C743   1.417       .  A
C742        H747   1.083       .  S
C743        C744   1.418       .  A
C744      Br1753   1.915   1_455  S
Br745      C1752   1.915       .  S
C749        C750   1.406       .  A
C749        C754   1.413       .  A
C749        H756   1.083       .  S
C750        C751   1.414       .  A
C751       C1760   1.404       .  A
C751      Br1766   1.921       .  S
C752       C1759   1.404   1_455  A
C752       C1761   1.408   1_455  A
C752        H757   1.083       .  S
C753       C1760   1.408       .  A
C753        C754   1.421       .  A
C754       Br755   1.920       .  S
Br758      C1759   1.921   1_455  S
C759        C760   1.409       .  A
C759        C764   1.403       .  A
C759        H766   1.083       .  S
C760       C1769   1.416       .  A
C761       C1768   1.416       .  A
C761        C762   1.410   1_655  A
C761       Br768   1.918       .  S
C762        C763   1.407       .  A
C762        H767   1.083       .  S
C763       C1772   1.409   1_455  A
C764       C1771   1.409       .  A
C764       Br765   1.919       .  S
C769        C770   1.401       .  A
C769        C774   1.393       .  A
C769        H776   1.084       .  S
C770        C771   1.403       .  A
C771        C772   1.385       .  A
C771       Br778   1.923       .  S
C772        C773   1.409       .  A
C772        H777   1.083       .  S
C773        C774   1.417       .  A
C774       Br775   1.924       .  S
C779        C784   1.387       .  A
C780        C781   1.413   1_565  A
C781       Br788   1.925   1_545  S
C782        C783   1.403       .  A
C782       H1795   1.084       .  S
C783        C784   1.409       .  A
C784       Br785   1.924       .  S
H787       C1790   1.084       .  S
C789        C790   1.406       .  A
C789        C794   1.401       .  A
C789        H796   1.084       .  S
C790        C791   1.413       .  A
C791        C792   1.402       .  A
C791       Br798   1.916       .  S
C792        C793   1.400       .  A
C792        H797   1.084       .  S
C793        C794   1.405       .  A
C794       Br795   1.918       .  S
C799        C800   1.397       .  A
C799        C804   1.387       .  A
C799        H806   1.084   1_556  S
C800        C801   1.407       .  A
C801        C802   1.386       .  A
C801       Br808   1.905       .  S
C802        C803   1.395       .  A
C802        H807   1.084       .  S
C803        C804   1.409       .  A
C804       Br805   1.922   1_556  S
C809        C810   1.401       .  A
C809        C814   1.392       .  A
C809        H816   1.084       .  S
C810        C811   1.401   1_554  A
C811        C812   1.385       .  A
C811       Br818   1.919       .  S
C812        C813   1.400   1_556  A
C812        H817   1.084       .  S
C813        C814   1.409       .  A
C814       Br815   1.921       .  S
C819        C820   1.408       .  A
C819        C824   1.401       .  A
C819        H826   1.083       .  S
C820        C821   1.418       .  A
C821        C822   1.399       .  A
C821       Br828   1.923       .  S
C822        C823   1.399       .  A
C822        H827   1.084       .  S
C823        C824   1.407       .  A
C824       Br825   1.919       .  S
C829        C830   1.401       .  A
C829        C834   1.391       .  A
C829        H836   1.084   1_565  S
C830        C831   1.415       .  A
C831        C832   1.402       .  A
C831       Br838   1.920       .  S
C832        C833   1.400       .  A
C832        H837   1.083       .  S
C833        C834   1.407       .  A
C834       Br835   1.916       .  S
C839        C840   1.410       .  A
C839        C844   1.402       .  A
C839        H846   1.083       .  S
C840        C841   1.416       .  A
C841        C842   1.404       .  A
C841       Br848   1.920       .  S
C842        C843   1.408       .  A
C842        H847   1.083       .  S
C843        C844   1.416       .  A
C844       Br845   1.924       .  S
C849        C850   1.399       .  A
C849        C854   1.396       .  A
C849        H856   1.084       .  S
C850        C851   1.410       .  A
C851        C852   1.398       .  A
C851       Br858   1.921       .  S
C852        C853   1.400       .  A
C852        H857   1.084       .  S
C853        C854   1.412       .  A
C854       Br855   1.921       .  S
C859        C860   1.407       .  A
C859        C864   1.399       .  A
C859        H866   1.084       .  S
C860        C861   1.415       .  A
C861        C862   1.406       .  A
C861       Br868   1.917       .  S
C862        C863   1.409       .  A
C862        H867   1.083       .  S
C863        C864   1.418       .  A
C864       Br865   1.925       .  S
C869       C1878   1.404       .  A
C869        C874   1.400       .  A
C869       H1884   1.084       .  S
C870       C1877   1.404       .  A
C870       C1879   1.419       .  A
C871       C1878   1.419       .  A
C871        C872   1.404       .  A
C871       Br878   1.921       .  S
C872        C873   1.400       .  A
C872        H877   1.083       .  S
C873        C874   1.413       .  A
C874       Br875   1.920       .  S
H876       C1877   1.084   1_455  S
C879        C880   1.413       .  A
C879        C884   1.407       .  A
C879        H886   1.083       .  S
C880        C881   1.424       .  A
C881        C882   1.429       .  A
C882        C883   1.415       .  A
C882        H887   1.083       .  S
C883        C884   1.414       .  A
C884       Br885   1.922       .  S
C889        C890   1.410       .  A
C889        C894   1.417       .  A
C889        H896   1.083       .  S
C890        C891   1.422       .  A
C891        C892   1.407       .  A
C891       Br898   1.924       .  S
C892        C893   1.410       .  A
C892        H897   1.083       .  S
C893        C894   1.424       .  A
C894       Br895   1.918       .  S
C899        C900   1.410       .  A
C899        C904   1.413       .  A
C899        H906   1.083       .  S
C900        C901   1.417       .  A
C901        C902   1.403       .  A
C902        C903   1.404       .  A
C902        H907   1.084       .  S
C903        C904   1.415       .  A
C904       Br905   1.918       .  S
C909        C910   1.414   1_554  A
C909        C914   1.429       .  A
C909        H916   1.083       .  S
C910        C911   1.426       .  A
C911        C912   1.423       .  A
C911       Br918   1.922       .  S
C912        C913   1.415       .  A
C912        H917   1.083       .  S
C913        C914   1.429   1_556  A
C914       Br915   1.919       .  S
C919        C920   1.413       .  A
C919        C924   1.416       .  A
C919        H926   1.083       .  S
C920        C921   1.428   1_554  A
C921        C922   1.430       .  A
C921       Br928   1.917       .  S
C922        C923   1.415   1_556  A
C922        H927   1.083       .  S
C923        C924   1.420       .  A
C924       Br925   1.913       .  S
C929        C930   1.406       .  A
C929        C934   1.400       .  A
C929        H936   1.084       .  S
C930        C931   1.410   1_554  A
C931        C932   1.398       .  A
C931       Br938   1.920       .  S
C932        C933   1.408   1_556  A
C932        H937   1.083       .  S
C933        C934   1.416       .  A
C934       Br935   1.923       .  S
C939        C940   1.406       .  A
C939        C944   1.392       .  A
C939        H946   1.083       .  S
C940        C941   1.416   1_556  A
C941        C942   1.393       .  A
C941       Br948   1.924       .  S
C942        C943   1.400   1_554  A
C942        H947   1.084       .  S
C943        C944   1.405       .  A
C944       Br945   1.920       .  S
C949        C950   1.413       .  A
C949        C954   1.409       .  A
C949        H956   1.083       .  S
C950        C951   1.422       .  A
C951        C952   1.407       .  A
C951       Br958   1.922       .  S
C952        C953   1.402       .  A
C952        H957   1.084       .  S
C953        C954   1.408       .  A
C954       Br955   1.917       .  S
C959        C960   1.411       .  A
C959        C964   1.419       .  A
C959        H966   1.084       .  S
C960        C961   1.414       .  A
C961        C962   1.413       .  A
C961       Br968   1.920       .  S
C962        C963   1.418       .  A
C962        H967   1.083       .  S
C963        C964   1.423       .  A
C964       Br965   1.919       .  S
C969        C970   1.413       .  A
C969        C974   1.424       .  A
C969        H976   1.082       .  S
C970        C971   1.418       .  A
C971        C972   1.418       .  A
C971      Br1986   1.918       .  S
C972        C973   1.414       .  A
C972        H977   1.083       .  S
C973        C974   1.423       .  A
C974       Br975   1.919       .  S
Br978      C1979   1.918       .  S
C979        C980   1.401       .  A
C979        C984   1.394       .  A
C979        H986   1.084       .  S
C980        C981   1.405       .  A
C981        C982   1.387       .  A
C981       Br988   1.921       .  S
C982       C1991   1.404       .  A
C982        H987   1.083       .  S
C983       C1990   1.404       .  A
C983       C1992   1.417       .  A
C984       C1991   1.417       .  A
C984      Br1993   1.925       .  S
Br985      C1992   1.925       .  S
C989        C990   1.401       .  A
C989        C994   1.395       .  A
C989        H996   1.084       .  S
C990        C991   1.401       .  A
C991        C992   1.386       .  A
C991       Br998   1.920       .  S
C992        C993   1.405       .  A
C992        H997   1.084       .  S
C993        C994   1.415       .  A
C994       Br995   1.924       .  S
C999       C1004   1.408       .  A
C999       H1006   1.083       .  S
C1000      C1001   1.419       .  A
C1001     Br1008   1.921       .  S
C1002      C1003   1.403   1_545  A
C1002      H1007   1.084       .  S
C1003      C1004   1.403       .  A
C1004     Br1005   1.916       .  S
O1009     Ni1015   1.931       .  S
O1009      C1030   1.271       .  A
O1010     Ni1033   1.911       .  S
O1010      C1019   1.270       .  A
O1011     Ni1015   1.912       .  S
O1011     Ni1033   1.912       .  S
O1011     Ni1027   1.901       .  S
O1011      H1034   0.967       .  S
C1012      O1029   1.275       .  A
C1012      O1021   1.284       .  A
C1012      C1497   1.468       .  S
O1013     Ni1032   1.956       .  S
O1013      C1019   1.281       .  A
O1014     Ni1032   1.932       .  S
O1014      C1016   1.273       .  A
Ni1015     O1522   1.923   1_545  S
Ni1015     O1020   1.938       .  S
C1016      O1026   1.280       .  A
C1016      C1464   1.517       .  S
O1017     Ni1537   1.887       .  S
O1017      C1023   1.268       .  A
O1018     Ni1519   1.923       .  S
O1018      C1023   1.277       .  A
C1019      C1504   1.506       .  S
O1020      C1022   1.275       .  A
O1021     Ni1032   1.919       .  S
C1022      O1028   1.283       .  A
C1022      C1477   1.534       .  S
C1023      C1484   1.460       .  S
H1024      O1025   0.966       .  S
O1025     Ni1033   1.884       .  S
O1025     Ni1027   1.908       .  S
O1025     Ni1032   1.892       .  S
O1026     Ni1027   1.958       .  S
Ni1027     O1031   1.928       .  S
Ni1027     O1029   1.899       .  S
O1028     Ni1033   1.981       .  S
C1030      O1031   1.272       .  A
C1030      C1454   1.507       .  S
Ni1033     O1521   1.887   1_545  S
O1035     Ni1041   1.928   1_565  S
O1035      C1560   1.274       .  A
O1036     Ni1059   1.924       .  S
O1036      C1045   1.275       .  A
O1037     Ni1041   1.920       .  S
O1037     Ni1059   1.911   1_554  S
O1037     Ni1557   1.935   1_545  S
O1037      H1060   0.966       .  S
C1038      O1055   1.281   1_556  A
C1038      O1047   1.285       .  A
C1038      C1444   1.474       .  S
O1039     Ni1058   1.949       .  S
O1039      C1549   1.280       .  A
O1040     Ni1058   1.926       .  S
O1040      C1042   1.271       .  A
Ni1041     O1044   1.924       .  S
Ni1041     O1046   1.944       .  S
C1042      O1052   1.292   1_556  A
C1042      C1414   1.543       .  S
O1043     Ni1059   1.918       .  S
O1043      C1049   1.278   1_556  A
O1044      C1049   1.276       .  A
C1045      O1543   1.280   1_545  A
C1045      C1457   1.490       .  S
O1046      C1048   1.280       .  A
O1047     Ni1058   1.920       .  S
C1048      O1054   1.285   1_554  A
C1048      C1424   1.544       .  S
C1049      C1434   1.480       .  S
H1050      O1051   0.966       .  S
O1051     Ni1563   1.909       .  S
O1051     Ni1053   1.899   1_556  S
O1051     Ni1058   1.883       .  S
O1052     Ni1053   1.988       .  S
Ni1053     O1057   1.929       .  S
Ni1053     O1055   1.915       .  S
Ni1053     O1541   1.936       .  S
O1054     Ni1059   1.986       .  S
C1056      O1539   1.273       .  A
C1056      O1057   1.272       .  A
C1056      C1404   1.500       .  S
Ni1059     O1555   1.909   1_545  S
O1061     Ni1067   1.925       .  S
O1061      C1082   1.270       .  A
O1062     Ni1085   1.925       .  S
O1062      C1071   1.277       .  A
O1063     Ni1067   1.913       .  S
O1063     Ni1085   1.913       .  S
O1063     Ni1079   1.939       .  S
O1063      H1086   0.967       .  S
C1064      O1081   1.291       .  A
C1064      O1073   1.283       .  A
C1064      C1374   1.490       .  S
O1065     Ni1084   1.949       .  S
O1065      C1071   1.283       .  A
O1066     Ni1084   1.932       .  S
O1066      C1068   1.274       .  A
Ni1067     O1070   1.930       .  S
Ni1067     O1072   1.921       .  S
C1068      O1078   1.278       .  A
C1068      C1888   1.530       .  S
O1069     Ni1085   1.930       .  S
O1069      C1075   1.278       .  A
O1070      C1075   1.277       .  A
C1071      C1407   1.499       .  S
O1072      C1074   1.273       .  A
O1073     Ni1084   1.925       .  S
C1074      O1080   1.284       .  A
C1074      C1394   1.518       .  S
C1075      C1364   1.498       .  S
H1076      O1077   0.966       .  S
O1077     Ni1085   1.913       .  S
O1077     Ni1079   1.895       .  S
O1077     Ni1084   1.885       .  S
O1078     Ni1079   1.955       .  S
Ni1079     O1083   1.923       .  S
Ni1079     O1081   1.947       .  S
O1080     Ni1085   1.974       .  S
C1082      O1083   1.269       .  A
C1082      C1507   1.483       .  S
O1087     Ni1093   1.926       .  S
O1087      C1108   1.271       .  A
O1088     Ni1111   1.902       .  S
O1088      C1097   1.268       .  A
O1089     Ni1093   1.903       .  S
O1089     Ni1111   1.906       .  S
O1089     Ni1105   1.906       .  S
O1089      H1112   0.965       .  S
C1090      O1107   1.272       .  A
C1090      O1099   1.280       .  A
C1090      C1487   1.475   1_655  S
O1091     Ni1110   1.936       .  S
O1091      C1097   1.274       .  A
O1092     Ni1110   1.918       .  S
O1092      C1094   1.268       .  A
Ni1093     O1096   1.919       .  S
Ni1093     O1098   1.911       .  S
C1094      O1104   1.264       .  A
C1094      C1337   1.465       .  S
O1095     Ni1111   1.889       .  S
O1095      C1101   1.263       .  A
O1096      C1101   1.273       .  A
C1097      C1324   1.486       .  S
O1098      C1100   1.272       .  A
O1099     Ni1110   1.916       .  S
C1100      O1106   1.282       .  A
C1100      C1347   1.496       .  S
C1101      C1494   1.452       .  S
H1102      O1103   0.966       .  S
O1103     Ni1111   1.883       .  S
O1103     Ni1105   1.888       .  S
O1103     Ni1110   1.892       .  S
O1104     Ni1105   1.903       .  S
Ni1105     O1109   1.896       .  S
Ni1105     O1107   1.900       .  S
O1106     Ni1111   1.957       .  S
C1108      O1109   1.263       .  A
C1108      C1354   1.465       .  S
O1113     Ni1119   1.920       .  S
O1113      C1134   1.270       .  A
O1114     Ni1137   1.891       .  S
O1114      C1123   1.257       .  A
O1115     Ni1119   1.915       .  S
O1115     Ni1137   1.915   1_554  S
O1115     Ni1131   1.915       .  S
O1115      H1138   0.966       .  S
C1116      O1133   1.268       .  A
C1116      O1125   1.280   1_554  A
C1116      C1317   1.450       .  S
O1117     Ni1136   1.948       .  S
O1117      C1123   1.271       .  A
O1118     Ni1136   1.896       .  S
O1118      C1120   1.265       .  A
Ni1119     O1122   1.924       .  S
Ni1119     O1124   1.914       .  S
C1120      O1130   1.268   1_556  A
C1120      C1447   1.462       .  S
O1121     Ni1137   1.882       .  S
O1121      C1127   1.255       .  A
O1122      C1127   1.273   1_554  A
C1123      C1327   1.472       .  S
O1124      C1126   1.272       .  A
O1125     Ni1136   1.916       .  S
C1126      O1132   1.277   1_554  A
C1126      C1437   1.489       .  S
C1127      C1304   1.447       .  S
H1128      O1129   0.966       .  S
O1129     Ni1137   1.867       .  S
O1129     Ni1131   1.910   1_556  S
O1129     Ni1136   1.903       .  S
O1130     Ni1131   1.915       .  S
Ni1131     O1135   1.917       .  S
Ni1131     O1133   1.887       .  S
O1132     Ni1137   1.941       .  S
C1134      O1135   1.269       .  A
C1134      C1294   1.482       .  S
O1139     Ni1145   1.922       .  S
O1139      C1160   1.269       .  A
O1140     Ni1163   1.911       .  S
O1140      C1149   1.269       .  A
O1141     Ni1145   1.908       .  S
O1141     Ni1163   1.908       .  S
O1141     Ni1157   1.907       .  S
O1141      H1164   0.970       .  S
C1142      O1159   1.275       .  A
C1142      O1151   1.280       .  A
C1142      C1284   1.468       .  S
O1143     Ni1162   1.933       .  S
O1143      C1149   1.275       .  A
O1144     Ni1162   1.926       .  S
O1144      C1146   1.270       .  A
Ni1145     O1148   1.919       .  S
Ni1145     O1150   1.908       .  S
C1146      O1156   1.266       .  A
C1146      C1377   1.481       .  S
O1147     Ni1163   1.886       .  S
O1147      C1153   1.264       .  A
O1148      C1153   1.271       .  A
C1149      C1297   1.471       .  S
O1150      C1152   1.271       .  A
O1151     Ni1162   1.911       .  S
C1152      O1158   1.283       .  A
C1152      C1367   1.499       .  S
C1153      C1274   1.456       .  S
H1154      O1155   0.966       .  S
O1155     Ni1163   1.881       .  S
O1155     Ni1157   1.887       .  S
O1155     Ni1162   1.889       .  S
O1156     Ni1157   1.913       .  S
Ni1157     O1161   1.900       .  S
Ni1157     O1159   1.900       .  S
O1158     Ni1163   1.965       .  S
C1160      O1161   1.264       .  A
C1160      C1357   1.466       .  S
O1165     Ni1171   1.924       .  S
O1165      C1186   1.271       .  A
O1166     Ni1189   1.936       .  S
O1166      C1175   1.281       .  A
O1167     Ni1171   1.915       .  S
O1167     Ni1189   1.913       .  S
O1167     Ni1183   1.942       .  S
O1167      H1190   0.967       .  S
C1168      O1185   1.288       .  A
C1168      O1177   1.282       .  A
C1168      C1838   1.474   1_545  S
O1169     Ni1188   1.938       .  S
O1169      C1175   1.279       .  A
O1170     Ni1188   1.932       .  S
Ni1171     O1174   1.932       .  S
Ni1171     O1176   1.921       .  S
C1172      C1474   1.527       .  S
O1173     Ni1189   1.927       .  S
O1173      C1179   1.279       .  A
O1174      C1179   1.278       .  A
C1175      C1254   1.499       .  S
O1176      C1178   1.275       .  A
O1177     Ni1188   1.918       .  S
C1178      O1184   1.288       .  A
C1178      C1467   1.531       .  S
C1179      C1344   1.499       .  S
H1180      O1181   0.966       .  S
O1181     Ni1189   1.914       .  S
O1181     Ni1183   1.894       .  S
O1181     Ni1188   1.887       .  S
O1182     Ni1183   1.966       .  S
Ni1183     O1187   1.929       .  S
Ni1183     O1185   1.933       .  S
O1184     Ni1189   1.988       .  S
C1186      O1187   1.272       .  A
C1186      C1264   1.499       .  S
O1191     Ni1197   1.949       .  S
O1192     Ni1215   1.905       .  S
O1192      C1201   1.269       .  A
O1193     Ni1197   1.915       .  S
O1193     Ni1215   1.915   1_556  S
O1193      H1216   0.967       .  S
C1194      O1211   1.275       .  A
C1194      O1203   1.282   1_556  A
C1194      C1307   1.447       .  S
O1195     Ni1214   1.961       .  S
O1196     Ni1214   1.934       .  S
O1196      C1198   1.274       .  A
Ni1197     O1200   1.930       .  S
Ni1197     O1202   1.954       .  S
C1198      O1208   1.288   1_554  A
C1198      C1427   1.538       .  S
O1199     Ni1215   1.870       .  S
O1199      C1205   1.263       .  A
O1200      C1205   1.280   1_556  A
C1201      C1247   1.508       .  S
O1202      C1204   1.279       .  A
O1203     Ni1214   1.912       .  S
C1204      O1210   1.284   1_556  A
C1204      C1417   1.550       .  S
C1205      C1314   1.446       .  S
O1207     Ni1209   1.903   1_554  S
O1207     Ni1214   1.884       .  S
O1208     Ni1209   1.986       .  S
Ni1209     O1213   1.920       .  S
Ni1209     O1211   1.889       .  S
O1210     Ni1215   1.987       .  S
C1212      O1213   1.272       .  A
C1212      C1257   1.508       .  S
O1217     Ni1223   1.907       .  S
O1217      C1238   1.267       .  A
O1218     Ni1241   1.921       .  S
O1218      C1227   1.273       .  A
O1219     Ni1223   1.907       .  S
O1219     Ni1241   1.904       .  S
O1219     Ni1235   1.914       .  S
O1219      H1242   0.967       .  S
C1220      O1237   1.281       .  A
C1220      O1229   1.282       .  A
C1220      C1277   1.474       .  S
O1221     Ni1240   1.947       .  S
O1221      C1227   1.280       .  A
O1222     Ni1240   1.929       .  S
O1222      C1224   1.273       .  A
Ni1223     O1228   1.925       .  S
C1224      O1234   1.274       .  A
C1224      C1397   1.522       .  S
O1225      C1231   1.269       .  A
O1226      C1231   1.276       .  A
C1227      C1267   1.491       .  S
O1228      C1230   1.273       .  A
O1229     Ni1240   1.905       .  S
C1230      O1236   1.285       .  A
C1230      C1387   1.521       .  S
C1231      C1287   1.464       .  S
H1232      O1233   0.966       .  S
O1233     Ni1241   1.880       .  S
O1233     Ni1235   1.902       .  S
O1233     Ni1240   1.884       .  S
O1234     Ni1235   1.948       .  S
Ni1235     O1239   1.935       .  S
Ni1235     O1237   1.915       .  S
O1236     Ni1241   1.988       .  S
C1238      O1239   1.269       .  A
C1238      C1244   1.488       .  S
C1243      C1244   1.403       .  A
C1243      C1248   1.405       .  A
C1243      H1250   1.084       .  S
C1244      C1245   1.405       .  A
C1245      C1246   1.408       .  A
C1245     Br1252   1.915       .  S
C1246      C1247   1.417       .  A
C1246      H1251   1.083       .  S
C1247      C1248   1.418       .  A
C1253      C1254   1.406       .  A
C1253      C1258   1.413       .  A
C1253      H1260   1.083       .  S
C1254      C1255   1.414       .  A
C1256      H1261   1.083       .  S
C1257      C1258   1.421       .  A
C1258     Br1259   1.920       .  S
C1263      C1264   1.409       .  A
C1263      C1268   1.403       .  A
C1263      H1270   1.083       .  S
C1265      C1266   1.410       .  A
C1265     Br1272   1.918       .  S
C1266      C1267   1.407       .  A
C1266      H1271   1.083       .  S
C1268     Br1269   1.919       .  S
C1273      C1274   1.401       .  A
C1273      C1278   1.393       .  A
C1273      H1280   1.084       .  S
C1274      C1275   1.403       .  A
C1275      C1276   1.385       .  A
C1275     Br1282   1.923       .  S
C1276      C1277   1.409       .  A
C1276      H1281   1.083       .  S
C1277      C1278   1.417       .  A
C1278     Br1279   1.924       .  S
C1283      C1788   1.404   1_545  A
C1283      C1288   1.387       .  A
C1283      H1794   1.083       .  S
C1284      C1787   1.404       .  A
C1284      C1285   1.413       .  A
C1285      C1790   1.389       .  A
C1285     Br1292   1.925       .  S
C1286      C1789   1.389       .  A
C1286      C1287   1.403       .  A
C1287      C1288   1.409       .  A
C1288     Br1289   1.924       .  S
H1290      C1787   1.083       .  S
C1293      C1294   1.406       .  A
C1293      C1298   1.401       .  A
C1293      H1300   1.084       .  S
C1294      C1295   1.413       .  A
C1295      C1296   1.402       .  A
C1295     Br1302   1.916       .  S
C1296      C1297   1.400       .  A
C1296      H1301   1.084       .  S
C1297      C1298   1.405       .  A
C1298     Br1299   1.918       .  S
C1303      C1304   1.397       .  A
C1303      C1308   1.387       .  A
C1303      H1310   1.084   1_556  S
C1304      C1305   1.407       .  A
C1305      C1306   1.386       .  A
C1305     Br1312   1.905       .  S
C1306      C1307   1.395       .  A
C1306      H1311   1.084       .  S
C1307      C1308   1.409       .  A
C1308     Br1309   1.922   1_556  S
C1313      C1314   1.400       .  A
C1313      C1318   1.392       .  A
C1313      H1320   1.084       .  S
C1314      C1315   1.401   1_554  A
C1315      C1316   1.385       .  A
C1315     Br1322   1.919       .  S
C1316      C1317   1.400   1_556  A
C1316      H1321   1.084       .  S
C1317      C1318   1.409       .  A
C1318     Br1319   1.921       .  S
C1323      C1324   1.408       .  A
C1323      C1328   1.401       .  A
C1323      H1330   1.083       .  S
C1324      C1325   1.418       .  A
C1325      C1326   1.399       .  A
C1325     Br1332   1.923       .  S
C1326      C1327   1.399       .  A
C1326      H1331   1.084       .  S
C1327      C1328   1.407       .  A
C1328     Br1329   1.919       .  S
C1333      C1334   1.401       .  A
C1333      C1338   1.391       .  A
C1333      H1340   1.084       .  S
C1334      C1672   1.474       .  S
C1334      C1335   1.415       .  A
C1335      C1336   1.402       .  A
C1335     Br1342   1.920       .  S
C1336      C1337   1.400       .  A
C1336      H1341   1.083       .  S
C1337      C1338   1.407       .  A
C1338     Br1339   1.916       .  S
C1343      C1344   1.410       .  A
C1343      C1348   1.402       .  A
C1343      H1350   1.083       .  S
C1344      C1345   1.416       .  A
C1345      C1346   1.404       .  A
C1345     Br1352   1.920       .  S
C1346      C1347   1.408       .  A
C1346      H1351   1.083       .  S
C1347      C1348   1.416       .  A
C1348     Br1349   1.924       .  S
C1353      C1354   1.399       .  A
C1353      C1358   1.396       .  A
C1353      H1360   1.084       .  S
C1354      C1355   1.410       .  A
C1355      C1356   1.398       .  A
C1355     Br1362   1.921       .  S
C1356      C1357   1.400       .  A
C1356      H1361   1.084       .  S
C1357      C1358   1.412       .  A
C1358     Br1359   1.921       .  S
C1363      C1364   1.407       .  A
C1363      C1368   1.400       .  A
C1363      H1370   1.084       .  S
C1364      C1365   1.415       .  A
C1365      C1366   1.406       .  A
C1365     Br1372   1.916       .  S
C1366      C1367   1.409       .  A
C1366      H1371   1.083       .  S
C1367      C1368   1.418       .  A
C1368     Br1369   1.925       .  S
C1373      C1378   1.400       .  A
C1375      C1376   1.404       .  A
C1375     Br1382   1.921       .  S
C1376      C1377   1.400       .  A
C1376      H1381   1.083       .  S
C1377      C1378   1.413       .  A
C1378     Br1379   1.920       .  S
C1383      C1384   1.412       .  A
C1383      C1388   1.407       .  A
C1383      H1390   1.083       .  S
C1384      C1572   1.529   1_545  S
C1384      C1385   1.424       .  A
C1385      C1386   1.429       .  A
C1385     Br1896   1.918       .  S
C1386      C1387   1.415       .  A
C1386      H1391   1.083       .  S
C1387      C1388   1.414       .  A
C1388     Br1389   1.922       .  S
Br1392     C1889   1.918       .  S
C1393      C1394   1.411       .  A
C1393      C1398   1.417       .  A
C1393      H1400   1.083       .  S
C1394      C1395   1.422       .  A
C1395      C1396   1.407       .  A
C1395     Br1402   1.924       .  S
C1396      C1397   1.410       .  A
C1396      H1401   1.083       .  S
C1397      C1398   1.424       .  A
C1398     Br1399   1.918       .  S
C1403      C1404   1.410       .  A
C1403      C1408   1.413       .  A
C1403      H1410   1.083       .  S
C1404      C1405   1.417       .  A
C1405      C1406   1.403       .  A
C1405     Br1916   1.921       .  S
C1406      C1407   1.404       .  A
C1406      H1411   1.084       .  S
C1407      C1408   1.415       .  A
C1408     Br1409   1.918       .  S
Br1412     C1909   1.921   1_545  S
C1413      C1414   1.414   1_554  A
C1413      C1418   1.429       .  A
C1413      H1420   1.083       .  S
C1414      C1415   1.426       .  A
C1415      C1416   1.423       .  A
C1415     Br1422   1.922       .  S
C1416      C1417   1.415       .  A
C1416      H1421   1.083       .  S
C1417      C1418   1.429   1_556  A
C1418     Br1419   1.919       .  S
C1423      C1424   1.413       .  A
C1423      C1428   1.416       .  A
C1423      H1430   1.083       .  S
C1424      C1425   1.428   1_554  A
C1425      C1426   1.430       .  A
C1425     Br1432   1.917       .  S
C1426      C1427   1.415   1_556  A
C1426      H1431   1.083       .  S
C1427      C1428   1.420       .  A
C1428     Br1429   1.913       .  S
C1433      C1434   1.406       .  A
C1433      C1438   1.400       .  A
C1433      H1440   1.084       .  S
C1434      C1435   1.410   1_554  A
C1435      C1436   1.397       .  A
C1435     Br1442   1.920       .  S
C1436      C1437   1.408   1_556  A
C1436      H1441   1.083       .  S
C1437      C1438   1.416       .  A
C1438     Br1439   1.923       .  S
C1443      C1444   1.406       .  A
C1443      C1448   1.392       .  A
C1443      H1450   1.083       .  S
C1444      C1445   1.416   1_556  A
C1445      C1446   1.393       .  A
C1445     Br1452   1.924       .  S
C1446      C1447   1.400   1_554  A
C1446      H1451   1.084       .  S
C1447      C1448   1.405       .  A
C1448     Br1449   1.920       .  S
C1453      C1454   1.413       .  A
C1453      C1458   1.409       .  A
C1453      H1460   1.083       .  S
C1454      C1455   1.421       .  A
C1455      C1456   1.407       .  A
C1455     Br1462   1.922       .  S
C1456      C1457   1.402       .  A
C1456      H1461   1.084       .  S
C1457      C1458   1.408       .  A
C1458     Br1459   1.917       .  S
C1463      C1464   1.411       .  A
C1463      C1468   1.418       .  A
C1463      H1470   1.084       .  S
C1464      C1465   1.414       .  A
C1465      C1466   1.413       .  A
C1465     Br1472   1.920       .  S
C1466      C1467   1.418       .  A
C1466      H1471   1.083       .  S
C1467      C1468   1.423       .  A
C1468     Br1469   1.919       .  S
C1473      C1474   1.413       .  A
C1473      C1478   1.424       .  A
C1473      H1480   1.082       .  S
C1474      C1475   1.418       .  A
C1475      C1476   1.418       .  A
C1476      C1477   1.414       .  A
C1476      H1481   1.083       .  S
C1477      C1478   1.423       .  A
C1478     Br1479   1.919       .  S
C1483      C1484   1.400       .  A
C1483      C1488   1.393       .  A
C1483      H1490   1.084       .  S
C1484      C1485   1.405       .  A
C1485      C1486   1.387       .  A
C1485     Br1492   1.921       .  S
C1486      H1491   1.083       .  S
C1493      C1494   1.401       .  A
C1493      C1498   1.395       .  A
C1493      H1500   1.084       .  S
C1494      C1495   1.401       .  A
C1495      C1496   1.386       .  A
C1495     Br1502   1.920       .  S
C1496      C1497   1.405       .  A
C1496      H1501   1.084       .  S
C1497      C1498   1.415       .  A
C1498     Br1499   1.924       .  S
C1503      C2008   1.416       .  A
C1503      C1508   1.408       .  A
C1503      H1510   1.083       .  S
C1504      C2007   1.416   1_545  A
C1504      C1505   1.419       .  A
C1505      C2010   1.405       .  A
C1505     Br1512   1.921       .  S
C1506      C2009   1.405       .  A
C1506      C1507   1.403       .  A
C1506      H1511   1.084       .  S
C1507      C1508   1.403       .  A
C1508     Br1509   1.916       .  S
O1513     Ni1519   1.930       .  S
O1513      C1534   1.271       .  A
O1514     Ni1537   1.911       .  S
O1514      C1523   1.270       .  A
O1515     Ni1519   1.912       .  S
O1515     Ni1537   1.912       .  S
O1515     Ni1531   1.901       .  S
O1515      H1538   0.967       .  S
C1516      O1533   1.275       .  A
C1516      O1525   1.284       .  A
C1516      C2001   1.468       .  S
O1517     Ni1536   1.956       .  S
O1517      C1523   1.281       .  A
O1518     Ni1536   1.932       .  S
O1518      C1520   1.273       .  A
Ni1519     O1524   1.938       .  S
C1520      O1530   1.280       .  A
C1520      C1968   1.517       .  S
O1521      C1527   1.268       .  A
O1522      C1527   1.277       .  A
C1523      C2008   1.505       .  S
O1524      C1526   1.275       .  A
O1525     Ni1536   1.919       .  S
C1526      O1532   1.283       .  A
C1526      C1981   1.534       .  S
C1527      C1988   1.460       .  S
H1528      O1529   0.966       .  S
O1529     Ni1537   1.884       .  S
O1529     Ni1531   1.908       .  S
O1529     Ni1536   1.892       .  S
O1530     Ni1531   1.958       .  S
Ni1531     O1535   1.929       .  S
Ni1531     O1533   1.899       .  S
O1532     Ni1537   1.981       .  S
C1534      O1535   1.272       .  A
C1534      C1958   1.508       .  S
O1539     Ni1545   1.928       .  S
O1540     Ni1563   1.924       .  S
O1540      C1549   1.275       .  A
O1541     Ni1545   1.920       .  S
O1541     Ni1563   1.911   1_554  S
O1541      H1564   0.966       .  S
C1542      O1559   1.281   1_556  A
C1542      O1551   1.285       .  A
C1542      C1948   1.474       .  S
O1543     Ni1562   1.949       .  S
O1544     Ni1562   1.926       .  S
O1544      C1546   1.271       .  A
Ni1545     O1548   1.924       .  S
Ni1545     O1550   1.944       .  S
C1546      O1556   1.292   1_556  A
C1546      C1918   1.543       .  S
O1547     Ni1563   1.918       .  S
O1547      C1553   1.278   1_556  A
O1548      C1553   1.276       .  A
C1549      C1961   1.490       .  S
O1550      C1552   1.280       .  A
O1551     Ni1562   1.920       .  S
C1552      O1558   1.285   1_554  A
C1552      C1928   1.544       .  S
C1553      C1938   1.480       .  S
H1554      O1555   0.966       .  S
O1555     Ni1557   1.900   1_556  S
O1555     Ni1562   1.884       .  S
O1556     Ni1557   1.988       .  S
Ni1557     O1561   1.930       .  S
Ni1557     O1559   1.916       .  S
O1558     Ni1563   1.987       .  S
C1560      O1561   1.272       .  A
C1560      C1908   1.501       .  S
O1565     Ni1571   1.925       .  S
O1565      C1586   1.270       .  A
O1566     Ni1589   1.925       .  S
O1566      C1575   1.277       .  A
O1567     Ni1571   1.913       .  S
O1567     Ni1589   1.913       .  S
O1567     Ni1583   1.939       .  S
O1567      H1590   0.967       .  S
C1568      O1585   1.291       .  A
C1568      O1577   1.283       .  A
C1568      C1878   1.490       .  S
O1569     Ni1588   1.950       .  S
O1569      C1575   1.283       .  A
O1570     Ni1588   1.932       .  S
O1570      C1572   1.274       .  A
Ni1571     O1574   1.930       .  S
Ni1571     O1576   1.922       .  S
C1572      O1582   1.278       .  A
O1573     Ni1589   1.929       .  S
O1573      C1579   1.278       .  A
O1574      C1579   1.277       .  A
C1575      C1911   1.499       .  S
O1576      C1578   1.273       .  A
O1577     Ni1588   1.925       .  S
C1578      O1584   1.284       .  A
C1578      C1898   1.518       .  S
C1579      C1868   1.498       .  S
H1580      O1581   0.966       .  S
O1581     Ni1589   1.912       .  S
O1581     Ni1583   1.895       .  S
O1581     Ni1588   1.885       .  S
O1582     Ni1583   1.954       .  S
Ni1583     O1587   1.923       .  S
Ni1583     O1585   1.947       .  S
O1584     Ni1589   1.974       .  S
C1586      O1587   1.269       .  A
C1586      C2011   1.483       .  S
O1591     Ni1597   1.927       .  S
O1591      C1612   1.271       .  A
O1592     Ni1615   1.902       .  S
O1592      C1601   1.268       .  A
O1593     Ni1597   1.902       .  S
O1593     Ni1615   1.906       .  S
O1593     Ni1609   1.905       .  S
O1593      H1616   0.965       .  S
C1594      O1611   1.272       .  A
C1594      O1603   1.280       .  A
C1594      C1991   1.474   1_655  S
O1595     Ni1614   1.935       .  S
O1595      C1601   1.274       .  A
O1596     Ni1614   1.919       .  S
O1596      C1598   1.268       .  A
Ni1597     O1600   1.920       .  S
Ni1597     O1602   1.911       .  S
C1598      O1608   1.264       .  A
C1598      C1841   1.465       .  S
O1599     Ni1615   1.889       .  S
O1599      C1605   1.263       .  A
O1600      C1605   1.273       .  A
C1601      C1828   1.486       .  S
O1602      C1604   1.272       .  A
O1603     Ni1614   1.916       .  S
C1604      O1610   1.281       .  A
C1604      C1851   1.496       .  S
C1605      C1998   1.452       .  S
H1606      O1607   0.966       .  S
O1607     Ni1615   1.883       .  S
O1607     Ni1609   1.888       .  S
O1607     Ni1614   1.892       .  S
O1608     Ni1609   1.904       .  S
Ni1609     O1613   1.896       .  S
Ni1609     O1611   1.901       .  S
O1610     Ni1615   1.957       .  S
C1612      O1613   1.263       .  A
C1612      C1858   1.465       .  S
O1617     Ni1623   1.920       .  S
O1617      C1638   1.270       .  A
O1618     Ni1641   1.891       .  S
O1618      C1627   1.257       .  A
O1619     Ni1623   1.915       .  S
O1619     Ni1641   1.915   1_554  S
O1619     Ni1635   1.915       .  S
O1619      H1642   0.966       .  S
C1620      O1637   1.268       .  A
C1620      O1629   1.280   1_554  A
C1620      C1821   1.450       .  S
O1621     Ni1640   1.948       .  S
O1621      C1627   1.271       .  A
O1622     Ni1640   1.896       .  S
O1622      C1624   1.265       .  A
Ni1623     O1626   1.924       .  S
Ni1623     O1628   1.914       .  S
C1624      O1634   1.268   1_556  A
C1624      C1951   1.462       .  S
O1625     Ni1641   1.882       .  S
O1625      C1631   1.255       .  A
O1626      C1631   1.273   1_554  A
C1627      C1831   1.472       .  S
O1628      C1630   1.272       .  A
O1629     Ni1640   1.916       .  S
C1630      O1636   1.277   1_554  A
C1630      C1941   1.489       .  S
C1631      C1808   1.446       .  S
H1632      O1633   0.966       .  S
O1633     Ni1641   1.867       .  S
O1633     Ni1635   1.910   1_556  S
O1633     Ni1640   1.903       .  S
O1634     Ni1635   1.915       .  S
Ni1635     O1639   1.917       .  S
Ni1635     O1637   1.887       .  S
O1636     Ni1641   1.942       .  S
C1638      O1639   1.269       .  A
C1638      C1798   1.482       .  S
O1643     Ni1649   1.922       .  S
O1643      C1664   1.269       .  A
O1644     Ni1667   1.911       .  S
O1644      C1653   1.269       .  A
O1645     Ni1649   1.907       .  S
O1645     Ni1667   1.908       .  S
O1645     Ni1661   1.907       .  S
O1645      H1668   0.970       .  S
C1646      O1663   1.275       .  A
C1646      O1655   1.280       .  A
C1646      C1788   1.468       .  S
O1647     Ni1666   1.933       .  S
O1647      C1653   1.275       .  A
O1648     Ni1666   1.927       .  S
O1648      C1650   1.270       .  A
Ni1649     O1652   1.919       .  S
Ni1649     O1654   1.907       .  S
C1650      O1660   1.266       .  A
C1650      C1881   1.481       .  S
O1651     Ni1667   1.887       .  S
O1651      C1657   1.264       .  A
O1652      C1657   1.271       .  A
C1653      C1801   1.471       .  S
O1654      C1656   1.270       .  A
O1655     Ni1666   1.912       .  S
C1656      O1662   1.283       .  A
C1656      C1871   1.498       .  S
C1657      C1778   1.457       .  S
H1658      O1659   0.966       .  S
O1659     Ni1667   1.882       .  S
O1659     Ni1661   1.887       .  S
O1659     Ni1666   1.889       .  S
O1660     Ni1661   1.912       .  S
Ni1661     O1665   1.899       .  S
Ni1661     O1663   1.899       .  S
O1662     Ni1667   1.965       .  S
C1664      O1665   1.264       .  A
C1664      C1861   1.466       .  S
O1669     Ni1675   1.924       .  S
O1669      C1690   1.271       .  A
O1670     Ni1693   1.936       .  S
O1670      C1679   1.281       .  A
O1671     Ni1675   1.915       .  S
O1671     Ni1693   1.913       .  S
O1671     Ni1687   1.942       .  S
O1671      H1694   0.967       .  S
C1672      O1689   1.288       .  A
C1672      O1681   1.282       .  A
O1673     Ni1692   1.938       .  S
O1673      C1679   1.279       .  A
O1674     Ni1692   1.932       .  S
Ni1675     O1678   1.932       .  S
Ni1675     O1680   1.922       .  S
C1676      C1978   1.527       .  S
O1677     Ni1693   1.927       .  S
O1677      C1683   1.279       .  A
O1678      C1683   1.278       .  A
C1679      C1758   1.500       .  S
O1680      C1682   1.275       .  A
O1681     Ni1692   1.918       .  S
C1682      O1688   1.288       .  A
C1682      C1971   1.531       .  S
C1683      C1848   1.499       .  S
H1684      O1685   0.966       .  S
O1685     Ni1693   1.914       .  S
O1685     Ni1687   1.894       .  S
O1685     Ni1692   1.886       .  S
O1686     Ni1687   1.966       .  S
Ni1687     O1691   1.929       .  S
Ni1687     O1689   1.933       .  S
O1688     Ni1693   1.988       .  S
C1690      O1691   1.272       .  A
C1690      C1768   1.499       .  S
O1695     Ni1701   1.949       .  S
O1696     Ni1719   1.905       .  S
O1696      C1705   1.269       .  A
O1697     Ni1701   1.915       .  S
O1697     Ni1719   1.915   1_556  S
O1697      H1720   0.967       .  S
C1698      O1715   1.275       .  A
C1698      O1707   1.282   1_556  A
C1698      C1811   1.447       .  S
O1699     Ni1718   1.961       .  S
O1700     Ni1718   1.934       .  S
O1700      C1702   1.274       .  A
Ni1701     O1704   1.930       .  S
Ni1701     O1706   1.954       .  S
C1702      O1712   1.288   1_554  A
C1702      C1931   1.538       .  S
O1703     Ni1719   1.870       .  S
O1703      C1709   1.263       .  A
O1704      C1709   1.280   1_556  A
C1705      C1751   1.508       .  S
O1706      C1708   1.280       .  A
O1707     Ni1718   1.912       .  S
C1708      O1714   1.284   1_556  A
C1708      C1921   1.550       .  S
C1709      C1818   1.446       .  S
O1711     Ni1713   1.903   1_554  S
O1711     Ni1718   1.884       .  S
O1712     Ni1713   1.986       .  S
Ni1713     O1717   1.920       .  S
Ni1713     O1715   1.889       .  S
O1714     Ni1719   1.987       .  S
C1716      O1717   1.272       .  A
C1716      C1761   1.508       .  S
O1721     Ni1727   1.906       .  S
O1721      C1742   1.267       .  A
O1722     Ni1745   1.921       .  S
O1722      C1731   1.273       .  A
O1723     Ni1727   1.907       .  S
O1723     Ni1745   1.904       .  S
O1723     Ni1739   1.914       .  S
O1723      H1746   0.967       .  S
C1724      O1741   1.281       .  A
C1724      O1733   1.282       .  A
C1724      C1781   1.474       .  S
O1725     Ni1744   1.948       .  S
O1725      C1731   1.280       .  A
O1726     Ni1744   1.930       .  S
O1726      C1728   1.273       .  A
Ni1727     O1732   1.926       .  S
C1728      O1738   1.274       .  A
C1728      C1901   1.522       .  S
O1729      C1735   1.269       .  A
O1730      C1735   1.275       .  A
C1731      C1771   1.491       .  S
O1732      C1734   1.273       .  A
O1733     Ni1744   1.905       .  S
C1734      O1740   1.285       .  A
C1734      C1891   1.521       .  S
C1735      C1791   1.464       .  S
H1736      O1737   0.966       .  S
O1737     Ni1745   1.880       .  S
O1737     Ni1739   1.902       .  S
O1737     Ni1744   1.884       .  S
O1738     Ni1739   1.948       .  S
Ni1739     O1743   1.935       .  S
Ni1739     O1741   1.915       .  S
O1740     Ni1745   1.988       .  S
C1742      O1743   1.269       .  A
C1742      C1748   1.488       .  S
C1747      C1748   1.403       .  A
C1747      C1752   1.405       .  A
C1747      H1754   1.084       .  S
C1748      C1749   1.405       .  A
C1749      C1750   1.408       .  A
C1749     Br1756   1.915       .  S
C1750      C1751   1.417       .  A
C1750      H1755   1.083       .  S
C1751      C1752   1.418       .  A
C1757      C1758   1.406       .  A
C1757      C1762   1.413       .  A
C1757      H1764   1.083       .  S
C1758      C1759   1.414       .  A
C1760      H1765   1.083       .  S
C1761      C1762   1.421       .  A
C1762     Br1763   1.920       .  S
C1767      C1768   1.409       .  A
C1767      C1772   1.403       .  A
C1767      H1774   1.083       .  S
C1769      C1770   1.410       .  A
C1769     Br1776   1.918       .  S
C1770      C1771   1.407       .  A
C1770      H1775   1.083       .  S
C1772     Br1773   1.919       .  S
C1777      C1778   1.401       .  A
C1777      C1782   1.393       .  A
C1777      H1784   1.084       .  S
C1778      C1779   1.403       .  A
C1779      C1780   1.385       .  A
C1779     Br1786   1.923       .  S
C1780      C1781   1.408       .  A
C1780      H1785   1.083       .  S
C1781      C1782   1.417       .  A
C1782     Br1783   1.924       .  S
C1787      C1792   1.387       .  A
C1788      C1789   1.413   1_565  A
C1789     Br1796   1.925   1_545  S
C1790      C1791   1.403       .  A
C1791      C1792   1.409       .  A
C1792     Br1793   1.924       .  S
C1797      C1798   1.406       .  A
C1797      C1802   1.401       .  A
C1797      H1804   1.084       .  S
C1798      C1799   1.413       .  A
C1799      C1800   1.402       .  A
C1799     Br1806   1.916       .  S
C1800      C1801   1.400       .  A
C1800      H1805   1.084       .  S
C1801      C1802   1.405       .  A
C1802     Br1803   1.918       .  S
C1807      C1808   1.397       .  A
C1807      C1812   1.387       .  A
C1807      H1814   1.084   1_556  S
C1808      C1809   1.407       .  A
C1809      C1810   1.386       .  A
C1809     Br1816   1.905       .  S
C1810      C1811   1.395       .  A
C1810      H1815   1.084       .  S
C1811      C1812   1.409       .  A
C1812     Br1813   1.922   1_556  S
C1817      C1818   1.401       .  A
C1817      C1822   1.392       .  A
C1817      H1824   1.084       .  S
C1818      C1819   1.401   1_554  A
C1819      C1820   1.385       .  A
C1819     Br1826   1.919       .  S
C1820      C1821   1.400   1_556  A
C1820      H1825   1.084       .  S
C1821      C1822   1.408       .  A
C1822     Br1823   1.921       .  S
C1827      C1828   1.408       .  A
C1827      C1832   1.401       .  A
C1827      H1834   1.083       .  S
C1828      C1829   1.418       .  A
C1829      C1830   1.399       .  A
C1829     Br1836   1.923       .  S
C1830      C1831   1.399       .  A
C1830      H1835   1.084       .  S
C1831      C1832   1.407       .  A
C1832     Br1833   1.919       .  S
C1837      C1838   1.401       .  A
C1837      C1842   1.391       .  A
C1837      H1844   1.084   1_565  S
C1838      C1839   1.415       .  A
C1839      C1840   1.402       .  A
C1839     Br1846   1.920       .  S
C1840      C1841   1.400       .  A
C1840      H1845   1.083       .  S
C1841      C1842   1.407       .  A
C1842     Br1843   1.915       .  S
C1847      C1848   1.410       .  A
C1847      C1852   1.402       .  A
C1847      H1854   1.083       .  S
C1848      C1849   1.416       .  A
C1849      C1850   1.404       .  A
C1849     Br1856   1.920       .  S
C1850      C1851   1.408       .  A
C1850      H1855   1.083       .  S
C1851      C1852   1.416       .  A
C1852     Br1853   1.924       .  S
C1857      C1858   1.399       .  A
C1857      C1862   1.396       .  A
C1857      H1864   1.084       .  S
C1858      C1859   1.410       .  A
C1859      C1860   1.398       .  A
C1859     Br1866   1.921       .  S
C1860      C1861   1.400       .  A
C1860      H1865   1.084       .  S
C1861      C1862   1.412       .  A
C1862     Br1863   1.921       .  S
C1867      C1868   1.407       .  A
C1867      C1872   1.399       .  A
C1867      H1874   1.084       .  S
C1868      C1869   1.415       .  A
C1869      C1870   1.406       .  A
C1869     Br1876   1.917       .  S
C1870      C1871   1.409       .  A
C1870      H1875   1.083       .  S
C1871      C1872   1.418       .  A
C1872     Br1873   1.925       .  S
C1877      C1882   1.400       .  A
C1879      C1880   1.404       .  A
C1879     Br1886   1.921       .  S
C1880      C1881   1.400       .  A
C1880      H1885   1.083       .  S
C1881      C1882   1.413       .  A
C1882     Br1883   1.920       .  S
C1887      C1888   1.413       .  A
C1887      C1892   1.407       .  A
C1887      H1894   1.083       .  S
C1888      C1889   1.424       .  A
C1889      C1890   1.429       .  A
C1890      C1891   1.415       .  A
C1890      H1895   1.083       .  S
C1891      C1892   1.414       .  A
C1892     Br1893   1.922       .  S
C1897      C1898   1.410       .  A
C1897      C1902   1.417       .  A
C1897      H1904   1.083       .  S
C1898      C1899   1.422       .  A
C1899      C1900   1.407       .  A
C1899     Br1906   1.924       .  S
C1900      C1901   1.410       .  A
C1900      H1905   1.083       .  S
C1901      C1902   1.424       .  A
C1902     Br1903   1.918       .  S
C1907      C1908   1.410       .  A
C1907      C1912   1.413       .  A
C1907      H1914   1.083       .  S
C1908      C1909   1.417       .  A
C1909      C1910   1.403       .  A
C1910      C1911   1.404       .  A
C1910      H1915   1.084       .  S
C1911      C1912   1.415       .  A
C1912     Br1913   1.918       .  S
C1917      C1918   1.414   1_554  A
C1917      C1922   1.429       .  A
C1917      H1924   1.083       .  S
C1918      C1919   1.426       .  A
C1919      C1920   1.423       .  A
C1919     Br1926   1.922       .  S
C1920      C1921   1.415       .  A
C1920      H1925   1.083       .  S
C1921      C1922   1.429   1_556  A
C1922     Br1923   1.919       .  S
C1927      C1928   1.413       .  A
C1927      C1932   1.416       .  A
C1927      H1934   1.083       .  S
C1928      C1929   1.428   1_554  A
C1929      C1930   1.430       .  A
C1929     Br1936   1.917       .  S
C1930      C1931   1.415   1_556  A
C1930      H1935   1.083       .  S
C1931      C1932   1.420       .  A
C1932     Br1933   1.913       .  S
C1937      C1938   1.406       .  A
C1937      C1942   1.400       .  A
C1937      H1944   1.084       .  S
C1938      C1939   1.410   1_554  A
C1939      C1940   1.398       .  A
C1939     Br1946   1.920       .  S
C1940      C1941   1.408   1_556  A
C1940      H1945   1.083       .  S
C1941      C1942   1.416       .  A
C1942     Br1943   1.923       .  S
C1947      C1948   1.406       .  A
C1947      C1952   1.392       .  A
C1947      H1954   1.083       .  S
C1948      C1949   1.416   1_556  A
C1949      C1950   1.393       .  A
C1949     Br1956   1.924       .  S
C1950      C1951   1.400   1_554  A
C1950      H1955   1.084       .  S
C1951      C1952   1.405       .  A
C1952     Br1953   1.920       .  S
C1957      C1958   1.413       .  A
C1957      C1962   1.409       .  A
C1957      H1964   1.083       .  S
C1958      C1959   1.422       .  A
C1959      C1960   1.406       .  A
C1959     Br1966   1.922       .  S
C1960      C1961   1.402       .  A
C1960      H1965   1.084       .  S
C1961      C1962   1.408       .  A
C1962     Br1963   1.917       .  S
C1967      C1968   1.411       .  A
C1967      C1972   1.418       .  A
C1967      H1974   1.084       .  S
C1968      C1969   1.414       .  A
C1969      C1970   1.413       .  A
C1969     Br1976   1.920       .  S
C1970      C1971   1.418       .  A
C1970      H1975   1.083       .  S
C1971      C1972   1.423       .  A
C1972     Br1973   1.919       .  S
C1977      C1978   1.414       .  A
C1977      C1982   1.424       .  A
C1977      H1984   1.082       .  S
C1978      C1979   1.418       .  A
C1979      C1980   1.418       .  A
C1980      C1981   1.414       .  A
C1980      H1985   1.083       .  S
C1981      C1982   1.423       .  A
C1982     Br1983   1.919       .  S
C1987      C1988   1.401       .  A
C1987      C1992   1.394       .  A
C1987      H1994   1.084       .  S
C1988      C1989   1.405       .  A
C1989      C1990   1.387       .  A
C1989     Br1996   1.921       .  S
C1990      H1995   1.083       .  S
C1997      C1998   1.401       .  A
C1997      C2002   1.395       .  A
C1997      H2004   1.084       .  S
C1998      C1999   1.401       .  A
C1999      C2000   1.386       .  A
C1999     Br2006   1.920       .  S
C2000      C2001   1.405       .  A
C2000      H2005   1.084       .  S
C2001      C2002   1.415       .  A
C2002     Br2003   1.924       .  S
C2007      C2012   1.408       .  A
C2007      H2014   1.083       .  S
C2008      C2009   1.419       .  A
C2009     Br2016   1.921       .  S
C2010      C2011   1.403   1_545  A
C2010      H2015   1.084       .  S
C2011      C2012   1.403       .  A
C2012     Br2013   1.916       .  S
