geometry optimzed in LAMMPS
_audit_creation_date              2020-11-30 
_audit_creation_method            'lammps2cif' 
_symmetry_space_group_name_H-M    'P1' 
_symmetry_Int_Tables_number       1 
_symmetry_cell_setting            triclinic 
loop_ 
_symmetry_equiv_pos_as_xyz 
  x,y,z 
_cell_length_a                    43.49328684 
_cell_length_b                    43.78527244363782 
_cell_length_c                    42.311635981517 
_cell_angle_alpha                 90.09622538825055 
_cell_angle_beta                  89.55909486030775 
_cell_angle_gamma                 124.04091755006893 
loop_ 
_atom_site_label 
_atom_site_type_symbol 
_atom_site_fract_x 
_atom_site_fract_y 
_atom_site_fract_z 
_atom_site_charge 
N1          N  0.36958225  0.09534710  0.05750650    -0.27800
N2          N  0.38969877  0.12708327  0.07259300    -0.35700
C3          C  0.40196193  0.15486112  0.05174141     0.00500
C4          C  0.38867693  0.13994466  0.02207747     0.06500
C5          C  0.36823963  0.10210769  0.02673422    -0.06600
H6          H  0.41898522  0.18376759  0.05786665     0.07200
H7          H  0.35405738  0.08092730  0.00896750     0.08400
Cu8        Cu  0.39849915  0.13120814  0.12102575     0.44200
Cu9        Cu  0.34572177  0.04405196  0.07895864     0.42000
Cu10       Cu  0.35664724  0.04407837  0.16300003     0.43900
N11         N  0.39849395  0.12671616  0.16987848    -0.35200
N12         N  0.38310623  0.09492554  0.18493474    -0.29500
C13         C  0.38580956  0.10101321  0.21620601    -0.05600
C14         C  0.40369992  0.13856335  0.22137205     0.06600
C15         C  0.41141137  0.15394374  0.19127426     0.00400
H16         H  0.37470213  0.07931224  0.23370993     0.08100
H17         H  0.42447004  0.18264564  0.18516393     0.07200
N18         N  0.32982414  0.99640073  0.13629352    -0.36700
N19         N  0.32597985  0.99638885  0.10535959    -0.28900
C20         C  0.30748756  0.96144715  0.09493764    -0.04100
C21         C  0.29910837  0.93819837  0.12058256     0.04500
C22         C  0.31369501  0.96148272  0.14644346     0.02600
H23         H  0.30007581  0.95361193  0.07051596     0.07700
H24         H  0.31280683  0.95376624  0.17086831     0.06500
C25         C  0.25365863  0.49683982  0.09891925     0.85900
C26         C  0.21136228  0.47667598  0.09667420    -0.54300
C27         C  0.19467034  0.48046528  0.12253768     0.08900
C28         C  0.22251922  0.50425870  0.14886078     0.19800
C29         C  0.26777757  0.53693211  0.10658566    -0.55000
C30         C  0.25144721  0.54077498  0.13244329     0.09000
C31         C  0.25969059  0.48213020  0.12970828    -0.54600
C32         C  0.24352161  0.48599074  0.15594317     0.09500
H33         H  0.19634863  0.46200659  0.07551724     0.14000
H34         H  0.20965788  0.50771536  0.17008788    -0.00200
H35         H  0.28860941  0.56029248  0.09244767     0.14300
H36         H  0.27660000  0.47123888  0.13149209     0.14100
C37         C  0.15643373  0.72093304  0.09162844     0.85900
C38         C  0.18124034  0.70711019  0.09888698    -0.54300
C39         C  0.20290623  0.72285253  0.12483705     0.08900
C40         C  0.19789805  0.75095534  0.14165633     0.19800
C41         C  0.13434006  0.71396502  0.12259182    -0.51200
C42         C  0.15593646  0.72966936  0.14880959     0.09000
C43         C  0.18309589  0.76297589  0.08974956    -0.54600
C44         C  0.20499464  0.77893054  0.11567378     0.09500
H45         H  0.18191107  0.68691474  0.08448715     0.14000
H46         H  0.21585123  0.76367183  0.16266401    -0.00200
H47         H  0.10441790  0.69714515  0.12447138     0.14300
H48         H  0.18402870  0.77877223  0.06955964     0.14100
C49         C  0.33562763  0.70827410  0.14681829     0.79700
N50         N  0.31203489  0.71927114  0.14512800    -0.78600
C51         C  0.27477533  0.69392070  0.14585400     0.82100
N52         N  0.26112111  0.65745841  0.14764662    -0.78600
C53         C  0.28464211  0.64638729  0.14946826     0.82200
N54         N  0.32186893  0.67182470  0.14877291    -0.80300
C55         C  0.49670627  0.82684982  0.09226427     0.85900
C56         C  0.45468914  0.80218752  0.09891159    -0.54300
C57         C  0.44533120  0.78174223  0.12588436     0.08900
C58         C  0.47855348  0.78760997  0.14420529     0.19800
C59         C  0.51333999  0.84977609  0.12250803    -0.55000
C60         C  0.50319918  0.82965511  0.14984006     0.09000
C61         C  0.50941074  0.80051686  0.09286477    -0.54600
C62         C  0.49961573  0.77939820  0.11966312     0.09500
H63         H  0.43413319  0.80080256  0.08342352     0.14000
H64         H  0.47006543  0.77063387  0.16603034    -0.00200
H65         H  0.53150556  0.87944151  0.12301356     0.14300
H66         H  0.52442700  0.79846216  0.07327764     0.14100
N67         N  0.60179439  0.58765741  0.06777532    -0.27800
N68         N  0.62176168  0.57866662  0.08353737    -0.35700
C69         C  0.63917707  0.56968175  0.06286534     0.00500
C70         C  0.62938945  0.57281933  0.03255977     0.06500
C71         C  0.60559889  0.58421053  0.03667794    -0.06600
H72         H  0.65729315  0.56116854  0.06946381     0.07200
H73         H  0.59272943  0.59052431  0.01837354     0.08400
Cu74       Cu  0.62343576  0.57862149  0.13242092     0.44200
Cu75       Cu  0.57243264  0.60691728  0.08908306     0.42000
Cu76       Cu  0.57076955  0.60874398  0.17416506     0.43900
N77         N  0.61808474  0.57842380  0.18110746    -0.35200
N78         N  0.59867443  0.58877217  0.19623505    -0.29500
C79         C  0.60152909  0.58563987  0.22750618    -0.05600
C80         C  0.62389242  0.57270803  0.23243633     0.06600
C81         C  0.63375205  0.56843775  0.20231335     0.00400
H82         H  0.58855524  0.59281025  0.24519418     0.08100
H83         H  0.65150219  0.55931953  0.19600578     0.07200
N84         N  0.55034433  0.63234490  0.14610170    -0.36700
N85         N  0.55090165  0.63152549  0.11490540    -0.28900
C86         C  0.53920303  0.65198341  0.10353651    -0.04100
C87         C  0.53095993  0.66672934  0.12875518     0.04500
C88         C  0.53828921  0.65338342  0.15540601     0.02600
H89         H  0.53871344  0.65719999  0.07864688     0.07700
H90         H  0.53650738  0.65961699  0.17981614     0.06500
N91         N  0.88507268  0.38088363  0.17860562    -0.27800
N92         N  0.85264603  0.35955975  0.16464050    -0.35700
C93         C  0.82545881  0.34791464  0.18633970     0.00500
C94         C  0.84146541  0.36243641  0.21553012     0.06500
C95         C  0.87938235  0.38331314  0.20949763    -0.06600
H96         H  0.79626276  0.32914552  0.18127954     0.07200
H97         H  0.90150827  0.39836286  0.22635513     0.08400
Cu98       Cu  0.84678254  0.34584842  0.11701813     0.44200
Cu99       Cu  0.93604778  0.40260781  0.15643196     0.42000
Cu100      Cu  0.93328687  0.37817280  0.07518574     0.43900
N101        N  0.85037918  0.34173280  0.06839164    -0.35200
N102        N  0.88209527  0.35482954  0.05314190    -0.29500
C103        C  0.87569678  0.35177272  0.02187123    -0.05600
C104        C  0.83811807  0.33564980  0.01712734     0.06600
C105        C  0.82290822  0.32945334  0.04720629     0.00400
H106        H  0.89700341  0.36118235  0.00388569     0.08100
H107        H  0.79433877  0.31864844  0.05323940     0.07200
N108        N  0.98128126  0.40273927  0.10230970    -0.36700
N109        N  0.98258253  0.41329673  0.13182643    -0.28900
C110        C  0.01714488  0.42854298  0.14293775    -0.04100
C111        C  0.03865313  0.42711440  0.11942741     0.04500
C112        C  0.01491160  0.41050050  0.09399805     0.02600
H113        H  0.02562639  0.43874621  0.16674997     0.07700
H114        H  0.02161911  0.40463291  0.07107691     0.06500
N115        N  0.03513725  0.64910446  0.43441775    -0.27800
N116        N  0.06746329  0.66610210  0.41950695    -0.35700
C117        C  0.09457484  0.67825064  0.44097874     0.00500
C118        C  0.07860890  0.66874124  0.47098735     0.06500
C119        C  0.04077449  0.65004746  0.46566869    -0.06600
H120        H  0.12382418  0.69460164  0.43510876     0.07200
H121        H  0.01880638  0.63930718  0.48314284     0.08400
Cu122      Cu  0.07350689  0.67640012  0.37111530     0.44200
Cu123      Cu  0.98507678  0.63038272  0.41271511     0.42000
Cu124      Cu  0.99113561  0.66002036  0.33234207     0.43900
N125        N  0.07169273  0.68656547  0.32338180    -0.35200
N126        N  0.04189579  0.68108173  0.30944829    -0.29500
C127        C  0.04954277  0.68958093  0.27859388    -0.05600
C128        C  0.08594508  0.70093254  0.27257807     0.06600
C129        C  0.09902996  0.69864560  0.30172228     0.00400
H130        H  0.02950756  0.68654794  0.26168348     0.08100
H131        H  0.12627860  0.70487567  0.30690788     0.07200
N132        N  0.94258746  0.63503720  0.35946118    -0.36700
N133        N  0.94008479  0.62266288  0.38848028    -0.28900
C134        C  0.90538774  0.60770631  0.39960314    -0.04100
C135        C  0.88506372  0.61120730  0.37663427     0.04500
C136        C  0.90957906  0.62869243  0.35149575     0.02600
H137        H  0.89608898  0.59641952  0.42313111     0.07700
H138        H  0.90385297  0.63625026  0.32904984     0.06500
N139        N  0.32745131  0.45756658  0.44065708    -0.27800
N140        N  0.30999187  0.47036952  0.42622774    -0.35700
C141        C  0.29753104  0.48336108  0.44811169     0.00500
C142        C  0.30739882  0.47838153  0.47786800     0.06500
C143        C  0.32648068  0.46202079  0.47200538    -0.06600
H144        H  0.28105121  0.49410250  0.44265332     0.07200
H145        H  0.33782453  0.45273527  0.48918604     0.08400
Cu146      Cu  0.30044207  0.46659712  0.37775266     0.44200
Cu147      Cu  0.34827227  0.43049151  0.41828480     0.42000
Cu148      Cu  0.32435387  0.41032683  0.33648765     0.43900
N149        N  0.29229483  0.45592849  0.32946962    -0.35200
N150        N  0.30084488  0.43501384  0.31464830    -0.29500
C151        C  0.29242784  0.43314338  0.28390497    -0.05600
C152        C  0.27779747  0.45390204  0.27884345     0.06600
C153        C  0.27824891  0.46800919  0.30842123     0.00400
H154        H  0.29737938  0.41825262  0.26646813     0.08100
H155        H  0.26902174  0.48570177  0.31432510     0.07200
N156        N  0.34863885  0.38879230  0.36217851    -0.36700
N157        N  0.35882067  0.39724515  0.39197572    -0.28900
C158        C  0.37352040  0.37878878  0.40174352    -0.04100
C159        C  0.37204864  0.35728682  0.37696011     0.04500
C160        C  0.35610674  0.36439294  0.35229164     0.02600
H161        H  0.38324006  0.37988717  0.42544708     0.07700
H162        H  0.35029055  0.35264919  0.32882921     0.06500
C163        C  0.67486396  0.55033857  0.35249481     0.85900
C164        C  0.71720700  0.57078877  0.35276570    -0.54300
C165        C  0.73121019  0.56447428  0.37897391     0.08900
C166        C  0.70075761  0.53819278  0.40316839     0.19800
C167        C  0.66034553  0.50964154  0.35777637    -0.55000
C168        C  0.67399333  0.50346056  0.38406759     0.09000
C169        C  0.66565797  0.56206582  0.38351223    -0.54600
C170        C  0.67819897  0.55490377  0.41016193     0.09500
H171        H  0.73425202  0.58716094  0.33275753     0.14000
H172        H  0.71113830  0.53242588  0.42467352    -0.00200
H173        H  0.64104526  0.48764932  0.34196546     0.14300
H174        H  0.64990427  0.57422113  0.38507389     0.14100
C175        C  0.58814287  0.33552851  0.39618414     0.79700
N176        N  0.61166824  0.32442863  0.39391840    -0.78600
C177        C  0.64895620  0.34964947  0.39501980     0.82100
N178        N  0.66265562  0.38604438  0.39764367    -0.78600
C179        C  0.63917690  0.39716070  0.39979548     0.82200
N180        N  0.60198404  0.37189734  0.39885393    -0.80300
C181        C  0.42996994  0.21406771  0.34253093     0.85900
C182        C  0.47149978  0.24146424  0.34884066    -0.54300
C183        C  0.47897706  0.26205949  0.37533843     0.08900
C184        C  0.44429961  0.25373161  0.39348639     0.19800
C185        C  0.41458890  0.19129437  0.37332372    -0.55000
C186        C  0.42211991  0.21194935  0.40003303     0.09000
C187        C  0.41385814  0.23752179  0.34237556    -0.54600
C188        C  0.42098569  0.25836668  0.36893508     0.09500
H189        H  0.49317336  0.24408584  0.33371539     0.14000
H190        H  0.45069339  0.27050261  0.41512719    -0.00200
H191        H  0.40024516  0.16170862  0.37472640     0.14300
H192        H  0.39872986  0.23791786  0.32229021     0.14100
C193        C  0.76490473  0.31916696  0.33803485     0.85900
C194        C  0.74129845  0.33436529  0.34567729    -0.54300
C195        C  0.72023068  0.31990626  0.37242455     0.08900
C196        C  0.72459656  0.29160842  0.38954951     0.19800
C197        C  0.78752397  0.32607491  0.36822944    -0.55000
C198        C  0.76681145  0.31234588  0.39544674     0.09000
C199        C  0.73724079  0.27720534  0.33745790    -0.54600
C200        C  0.71575656  0.26249578  0.36404032     0.09500
H201        H  0.74086459  0.35438977  0.33089929     0.14000
H202        H  0.70687674  0.28011643  0.41103029    -0.00200
H203        H  0.81723072  0.33973423  0.36843037     0.14300
H204        H  0.73498788  0.26050943  0.31744723     0.14100
N205        N  0.55175033  0.94781125  0.30643450    -0.27800
N206        N  0.53902655  0.91672612  0.32202462    -0.35700
C207        C  0.52928502  0.88950140  0.30119124     0.00500
C208        C  0.53596523  0.90405018  0.27093211     0.06500
C209        C  0.55032549  0.94114630  0.27529539    -0.06600
H210        H  0.51721722  0.86103881  0.30765241     0.07200
H211        H  0.55896897  0.96190899  0.25719591     0.08400
Cu212      Cu  0.53433693  0.91251723  0.37082549     0.44200
Cu213      Cu  0.56978501  0.99810392  0.32766109     0.42000
Cu214      Cu  0.56513623  0.99775438  0.41248077     0.43900
N215        N  0.53382675  0.91652103  0.41960123    -0.35200
N216        N  0.54519014  0.94751889  0.43471517    -0.29500
C217        C  0.54208160  0.94097646  0.46599338    -0.05600
C218        C  0.52799333  0.90399138  0.47097284     0.06600
C219        C  0.52308965  0.88943552  0.44085374     0.00400
H220        H  0.54951639  0.96181315  0.48368592     0.08100
H221        H  0.51297893  0.86135692  0.43465798     0.07200
N222        N  0.58618921  0.04519411  0.38538462    -0.36700
N223        N  0.58767851  0.04529062  0.35418544    -0.28900
C224        C  0.60458644  0.08020137  0.34373045    -0.04100
C225        C  0.61455700  0.10345186  0.36960673     0.04500
C226        C  0.60225501  0.08005190  0.39561684     0.02600
H227        H  0.61076972  0.08813951  0.31912122     0.07700
H228        H  0.60561171  0.08775974  0.42026859     0.06500
C229        C  0.66624164  0.20218594  0.34005579    -0.13900
C230        C  0.68657858  0.22230662  0.36680620     0.08200
C231        C  0.68043341  0.20334640  0.39533854    -0.13900
C232        C  0.65605761  0.16482669  0.39661723    -0.13900
C233        C  0.63726724  0.14450838  0.36936767     0.08200
C234        C  0.64196226  0.16382769  0.34130341    -0.13900
H235        H  0.66955218  0.21609244  0.31789158     0.12200
H236        H  0.69570417  0.21804018  0.41629232     0.12200
H237        H  0.65315141  0.15096862  0.41868119     0.12200
H238        H  0.62734550  0.14932155  0.32005402     0.12200
C239        C  0.67391357  0.33840849  0.38934035    -0.13800
C240        C  0.69504449  0.32967267  0.38269982    -0.15400
C241        C  0.54900861  0.30958323  0.39147927    -0.13800
C242        C  0.51658682  0.28825990  0.38542428    -0.15400
C243        C  0.66368410  0.46708119  0.39275002    -0.13800
C244        C  0.65340718  0.43558495  0.39750404    -0.15400
C245        C  0.36426559  0.29934504  0.35817584    -0.13900
C246        C  0.38348069  0.33115528  0.37681456     0.08200
C247        C  0.41392876  0.33799224  0.39449821    -0.13900
C248        C  0.42595159  0.31424422  0.39236618    -0.13900
C249        C  0.40727250  0.28278941  0.37298640     0.08200
C250        C  0.37565971  0.27525546  0.35660842    -0.13900
H251        H  0.34016424  0.29291327  0.34487658     0.12200
H252        H  0.42924308  0.36239526  0.40906664     0.12200
H253        H  0.45052650  0.32129534  0.40514698     0.12200
H254        H  0.35949738  0.25070467  0.34240444     0.12200
C255        C  0.83532222  0.62107238  0.36356915    -0.13900
C256        C  0.84614682  0.60025074  0.37896100     0.08200
C257        C  0.81950862  0.56894845  0.39635656    -0.13900
C258        C  0.78236240  0.55783877  0.39721392    -0.13900
C259        C  0.77126841  0.57822802  0.38116779     0.08200
C260        C  0.79850186  0.61050056  0.36499466    -0.13900
H261        H  0.85543006  0.64574971  0.35054207     0.12200
H262        H  0.82715614  0.55234739  0.40838873     0.12200
H263        H  0.76225229  0.53256525  0.40947404     0.12200
H264        H  0.79140122  0.62756373  0.35306324     0.12200
C265        C  0.78369160  0.33519334  0.24901579    -0.13900
C266        C  0.82249632  0.35435646  0.24679528     0.08200
C267        C  0.84299139  0.36464437  0.27486808    -0.13900
C268        C  0.82520319  0.35466922  0.30433451    -0.13900
C269        C  0.78615892  0.33383887  0.30668181     0.08200
C270        C  0.76586058  0.32529901  0.27850677    -0.13900
H271        H  0.76688946  0.32734846  0.22801376     0.12200
H272        H  0.87292729  0.37976207  0.27430279     0.12200
H273        H  0.84271900  0.36338847  0.32478020     0.12200
H274        H  0.73585305  0.30993683  0.27933437     0.12200
C275        C  0.83838608  0.35395044  0.46127697    -0.13900
C276        C  0.81920759  0.32971737  0.48652518     0.08200
C277        C  0.78209027  0.30026558  0.48223320    -0.13900
C278        C  0.76490741  0.29452325  0.45283010    -0.13900
C279        C  0.78431025  0.31850110  0.42726687     0.08200
C280        C  0.82107844  0.34877134  0.43226542    -0.13900
H281        H  0.86670396  0.37743869  0.46410712     0.12200
H282        H  0.76664208  0.28117856  0.00139702     0.12200
H283        H  0.73672093  0.27092927  0.45014122     0.12200
H284        H  0.83672730  0.36898347  0.41392199     0.12200
C285        C  0.66940531  0.54644440  0.29299558    -0.13900
C286        C  0.66053128  0.55615741  0.32172226     0.08200
C287        C  0.63852118  0.57053315  0.32055187    -0.13900
C288        C  0.62648153  0.57552981  0.29171012    -0.13900
C289        C  0.63592699  0.56635041  0.26310691     0.08200
C290        C  0.65737719  0.55149572  0.26414832    -0.13900
H291        H  0.68595081  0.53498760  0.29291473     0.12200
H292        H  0.63009135  0.57813104  0.34143891     0.12200
H293        H  0.60992729  0.58691349  0.29204303     0.12200
H294        H  0.66504802  0.54371738  0.24275241     0.12200
C295        C  0.67644612  0.57114000  0.49865592    -0.13900
C296        C  0.64169096  0.56619107  0.50207625     0.08200
C297        C  0.61869439  0.55574816  0.47566884    -0.13900
C298        C  0.63041747  0.55139101  0.44631136    -0.13900
C299        C  0.66583529  0.55801430  0.44228462     0.08200
C300        C  0.68849134  0.56719957  0.46892927    -0.13900
H301        H  0.69473420  0.57914610  0.01869927     0.12200
H302        H  0.59139553  0.55074619  0.47768324     0.12200
H303        H  0.61141796  0.54262032  0.42672637     0.12200
H304        H  0.71579018  0.57225930  0.46666742     0.12200
C305        C  0.50497852  0.72996829  0.09584738    -0.13900
C306        C  0.50593961  0.74936038  0.12278045     0.08200
C307        C  0.51304724  0.73982911  0.15221166    -0.13900
C308        C  0.52042337  0.71250071  0.15440258    -0.13900
C309        C  0.52070699  0.69401179  0.12719362     0.08200
C310        C  0.51226035  0.70278355  0.09800983    -0.13900
H311        H  0.49835238  0.73560389  0.07289894     0.12200
H312        H  0.51394125  0.75416437  0.17341301     0.12200
H313        H  0.52666361  0.70653314  0.17735289     0.12200
H314        H  0.51135049  0.68881405  0.07658867     0.12200
C315        C  0.52592741  0.88673105  0.05908366    -0.13900
C316        C  0.50575903  0.84793101  0.06096189     0.08200
C317        C  0.49277027  0.82789080  0.03256104    -0.13900
C318        C  0.50005283  0.84588112  0.00339921    -0.13900
C319        C  0.52032559  0.88454510  0.00176937     0.08200
C320        C  0.53311466  0.90462202  0.02999857    -0.13900
H321        H  0.53615877  0.90408980  0.07962302     0.12200
H322        H  0.47681809  0.79805551  0.03299477     0.12200
H323        H  0.48939167  0.82934235  0.48223357     0.12200
H324        H  0.54890849  0.93440267  0.02983230     0.12200
C325        C  0.51424847  0.88136376  0.18445983    -0.13900
C326        C  0.51134192  0.84780257  0.18141334     0.08200
C327        C  0.51563730  0.83211227  0.20855598    -0.13900
C328        C  0.52352200  0.85014636  0.23784830    -0.13900
C329        C  0.52740595  0.88423297  0.24040301     0.08200
C330        C  0.52249780  0.89941757  0.21336056    -0.13900
H331        H  0.50950986  0.89367761  0.16456344     0.12200
H332        H  0.51348778  0.80630338  0.20709666     0.12200
H333        H  0.52711354  0.83770295  0.25833433     0.12200
H334        H  0.52424214  0.92503367  0.21452409     0.12200
C335        C  0.37477014  0.73459913  0.14192473    -0.13800
C336        C  0.40721105  0.75624518  0.13565911    -0.15400
C337        C  0.24993436  0.70531220  0.14083211    -0.13800
C338        C  0.22873915  0.71399004  0.13471932    -0.15400
C339        C  0.07786929  0.67467203  0.03007355    -0.13900
C340        C  0.09782129  0.68007011  0.00198743     0.08200
C341        C  0.13643373  0.69766511  0.00377154    -0.13900
C342        C  0.15458589  0.71006294  0.03275781    -0.13900
C343        C  0.13477177  0.70508405  0.06093037     0.08200
C344        C  0.09598643  0.68702099  0.05906845    -0.13900
H345        H  0.04816721  0.66154667  0.02981523     0.12200
H346        H  0.15286787  0.70224015  0.48279375     0.12200
H347        H  0.18446698  0.72406217  0.03318198     0.12200
H348        H  0.07908979  0.68280839  0.07948085     0.12200
C349        C  0.13911303  0.71358208  0.23742434    -0.13900
C350        C  0.10547895  0.71087851  0.24139472     0.08200
C351        C  0.08996968  0.71664494  0.21491713    -0.13900
C352        C  0.10684486  0.72362693  0.18515780    -0.13900
C353        C  0.13974838  0.72511265  0.18100626     0.08200
C354        C  0.15606853  0.72066573  0.20756292    -0.13900
H355        H  0.15194065  0.70926599  0.25715335     0.12200
H356        H  0.06457180  0.71554802  0.21698664     0.12200
H357        H  0.09398378  0.72775843  0.16530363     0.12200
H358        H  0.18123951  0.72134452  0.20510700     0.12200
C359        C  0.12865237  0.43411018  0.10550037    -0.13900
C360        C  0.15413021  0.46530206  0.12348508     0.08200
C361        C  0.14076880  0.48295145  0.14101065    -0.13900
C362        C  0.10315820  0.47013120  0.14017012    -0.13900
C363        C  0.07816058  0.43979815  0.12134055     0.08200
C364        C  0.09126612  0.42180208  0.10417145    -0.13900
H365        H  0.13749758  0.41910618  0.09229310     0.12200
H366        H  0.15943540  0.50739697  0.15463814     0.12200
H367        H  0.09384380  0.48467747  0.15350815     0.12200
H368        H  0.07250784  0.39794407  0.08990227     0.12200
C369        C  0.26052781  0.57647365  0.14228736    -0.13800
C370        C  0.27049266  0.60790111  0.14715428    -0.15400
C371        C  0.28922382  0.47580204  0.06622671    -0.13900
C372        C  0.27050631  0.49361233  0.06825044     0.08200
C373        C  0.26601925  0.50803056  0.04024928    -0.13900
C374        C  0.27881987  0.50401634  0.01118066    -0.13900
C375        C  0.29642049  0.48524914  0.00910951     0.08200
C376        C  0.30199982  0.47176644  0.03709964    -0.13900
H377        H  0.29355376  0.46396837  0.08658617     0.12200
H378        H  0.25188791  0.52200493  0.04083908     0.12200
H379        H  0.27437640  0.51527122  0.49033066     0.12200
H380        H  0.31542925  0.45715846  0.03661681     0.12200
C381        C  0.25286993  0.49728861  0.21462688    -0.13900
C382        C  0.24855740  0.47577257  0.18819319     0.08200
C383        C  0.25145892  0.44563595  0.19239121    -0.13900
C384        C  0.26004637  0.43813782  0.22190091    -0.13900
C385        C  0.26588383  0.46048759  0.24813036     0.08200
C386        C  0.26141317  0.48971683  0.24428962    -0.13900
H387        H  0.25117943  0.52091098  0.21217828     0.12200
H388        H  0.24743547  0.42793779  0.17271957     0.12200
H389        H  0.26236514  0.41488485  0.22397781     0.12200
H390        H  0.26571195  0.50755187  0.26390577     0.12200
C391        C  0.39797006  0.13717319  0.28055069    -0.13900
C392        C  0.41088830  0.15756774  0.25229026     0.08200
C393        C  0.43022382  0.19612687  0.25395705    -0.13900
C394        C  0.43622498  0.21368084  0.28308626    -0.13900
C395        C  0.42299528  0.19331870  0.31145520     0.08200
C396        C  0.40383646  0.15466879  0.30964327    -0.13900
H397        H  0.38295209  0.10745977  0.28044792     0.12200
H398        H  0.44080180  0.21294701  0.23283990     0.12200
H399        H  0.45119092  0.24345413  0.28351070     0.12200
H400        H  0.39301512  0.13722461  0.33023534     0.12200
C401        C  0.37145357  0.14233977  0.46624900    -0.13900
C402        C  0.39575005  0.15979105  0.49170335     0.08200
C403        C  0.42739771  0.19575674  0.48746117    -0.13900
C404        C  0.43540661  0.21321590  0.45795863    -0.13900
C405        C  0.41178108  0.19516313  0.43218953     0.08200
C406        C  0.37926193  0.15987707  0.43690985    -0.13900
H407        H  0.34642876  0.11497174  0.46890946     0.12200
H408        H  0.44674803  0.20990134  0.00657896     0.12200
H409        H  0.46088949  0.24019410  0.45507049     0.12200
H410        H  0.35995899  0.14555385  0.41778999     0.12200
C411        C  0.26053115  0.87652959  0.14789823    -0.13900
C412        C  0.27779592  0.89733104  0.12028910     0.08200
C413        C  0.27342829  0.87865862  0.09192798    -0.13900
C414        C  0.25100715  0.84023955  0.09081779    -0.13900
C415        C  0.23220853  0.81946638  0.11800488     0.08200
C416        C  0.23792115  0.83792655  0.14675306    -0.13900
H417        H  0.26331482  0.89001873  0.17016184     0.12200
H418        H  0.28703328  0.89368982  0.07039910     0.12200
H419        H  0.24800076  0.82677748  0.06847033     0.12200
H420        H  0.22367654  0.82266953  0.16805179     0.12200
N421        N  0.36958206  0.09534694  0.55750647    -0.27800
N422        N  0.38969861  0.12708309  0.57259298    -0.35700
C423        C  0.40196175  0.15486096  0.55174141     0.00500
C424        C  0.38867672  0.13994453  0.52207747     0.06500
C425        C  0.36823940  0.10210756  0.52673420    -0.06600
H426        H  0.41898506  0.18376742  0.55786666     0.07200
H427        H  0.35405712  0.08092718  0.50896749     0.08400
Cu428      Cu  0.39849910  0.13120795  0.62102573     0.44200
Cu429      Cu  0.34572157  0.04405180  0.57895860     0.42000
Cu430      Cu  0.35664721  0.04407825  0.66300001     0.43900
N431        N  0.39849397  0.12671603  0.66987846    -0.35200
N432        N  0.38310624  0.09492542  0.68493473    -0.29500
C433        C  0.38580956  0.10101312  0.71620601    -0.05600
C434        C  0.40369991  0.13856326  0.72137204     0.06600
C435        C  0.41141138  0.15394363  0.69127424     0.00400
H436        H  0.37470210  0.07931215  0.73370994     0.08100
H437        H  0.42447005  0.18264553  0.68516389     0.07200
N438        N  0.32982402  0.99640062  0.63629350    -0.36700
N439        N  0.32597968  0.99638872  0.60535957    -0.28900
C440        C  0.30748736  0.96144702  0.59493763    -0.04100
C441        C  0.29910822  0.93819825  0.62058254     0.04500
C442        C  0.31369491  0.96148260  0.64644344     0.02600
H443        H  0.30007557  0.95361179  0.57051595     0.07700
H444        H  0.31280677  0.95376612  0.67086828     0.06500
C445        C  0.25365857  0.49683971  0.59891923     0.85900
C446        C  0.21136221  0.47667582  0.59667419    -0.54300
C447        C  0.19467026  0.48046513  0.62253766     0.08900
C448        C  0.22251914  0.50425859  0.64886075     0.19800
C449        C  0.26777746  0.53693200  0.60658560    -0.55000
C450        C  0.25144709  0.54077486  0.63244323     0.09000
C451        C  0.25969057  0.48213014  0.62970827    -0.54600
C452        C  0.24352158  0.48599069  0.65594315     0.09500
H453        H  0.19634856  0.46200639  0.57551724     0.14000
H454        H  0.20965780  0.50771525  0.67008785    -0.00200
H455        H  0.28860927  0.56029236  0.59244760     0.14300
H456        H  0.27660000  0.47123884  0.63149209     0.14100
C457        C  0.15643365  0.72093294  0.59162840     0.85900
C458        C  0.18124025  0.70711011  0.59888697    -0.54300
C459        C  0.20290612  0.72285244  0.62483704     0.08900
C460        C  0.19789792  0.75095525  0.64165631     0.19800
C461        C  0.13433995  0.71396494  0.62259176    -0.51200
C462        C  0.15593632  0.72966928  0.64880954     0.09000
C463        C  0.18309581  0.76297579  0.58974951    -0.54600
C464        C  0.20499453  0.77893044  0.61567375     0.09500
H465        H  0.18191102  0.68691466  0.58448714     0.14000
H466        H  0.21585109  0.76367174  0.66266399    -0.00200
H467        H  0.10441779  0.69714511  0.62447130     0.14300
H468        H  0.18402865  0.77877214  0.56955958     0.14100
C469        C  0.33562751  0.70827398  0.64681817     0.79700
N470        N  0.31203479  0.71927103  0.64512790    -0.78600
C471        C  0.27477522  0.69392060  0.64585391     0.82100
N472        N  0.26112099  0.65745832  0.64764652    -0.78600
C473        C  0.28464198  0.64638718  0.64946814     0.82200
N474        N  0.32186881  0.67182458  0.64877278    -0.80300
C475        C  0.49670620  0.82684976  0.59226427     0.85900
C476        C  0.45468906  0.80218746  0.59891156    -0.54300
C477        C  0.44533110  0.78174216  0.62588433     0.08900
C478        C  0.47855337  0.78760990  0.64420528     0.19800
C479        C  0.51333989  0.84977602  0.62250804    -0.55000
C480        C  0.50319906  0.82965504  0.64984007     0.09000
C481        C  0.50941067  0.80051680  0.59286478    -0.54600
C482        C  0.49961564  0.77939815  0.61966314     0.09500
H483        H  0.43413312  0.80080249  0.58342347     0.14000
H484        H  0.47006530  0.77063378  0.66603033    -0.00200
H485        H  0.53150548  0.87944145  0.62301357     0.14300
H486        H  0.52442693  0.79846210  0.57327767     0.14100
N487        N  0.60179433  0.58765736  0.56777531    -0.27800
N488        N  0.62176158  0.57866651  0.58353736    -0.35700
C489        C  0.63917691  0.56968157  0.56286534     0.00500
C490        C  0.62938931  0.57281916  0.53255978     0.06500
C491        C  0.60559880  0.58421044  0.53667793    -0.06600
H492        H  0.65729297  0.56116833  0.56946381     0.07200
H493        H  0.59272939  0.59052426  0.51837353     0.08400
Cu494      Cu  0.62343574  0.57862146  0.63242090     0.44200
Cu495      Cu  0.57243273  0.60691739  0.58908306     0.42000
Cu496      Cu  0.57076958  0.60874401  0.67416505     0.43900
N497        N  0.61808476  0.57842381  0.68110742    -0.35200
N498        N  0.59867445  0.58877219  0.69623502    -0.29500
C499        C  0.60152911  0.58563988  0.72750614    -0.05600
C500        C  0.62389243  0.57270803  0.73243629     0.06600
C501        C  0.63375206  0.56843775  0.70231330     0.00400
H502        H  0.58855526  0.59281026  0.74519415     0.08100
H503        H  0.65150219  0.55931951  0.69600573     0.07200
N504        N  0.55034439  0.63234497  0.64610172    -0.36700
N505        N  0.55090176  0.63152561  0.61490541    -0.28900
C506        C  0.53920312  0.65198353  0.60353654    -0.04100
C507        C  0.53095997  0.66672940  0.62875522     0.04500
C508        C  0.53828923  0.65338345  0.65540604     0.02600
H509        H  0.53871355  0.65720013  0.57864691     0.07700
H510        H  0.53650735  0.65961696  0.67981617     0.06500
N511        N  0.88507264  0.38088342  0.67860563    -0.27800
N512        N  0.85264598  0.35955955  0.66464051    -0.35700
C513        C  0.82545876  0.34791444  0.68633971     0.00500
C514        C  0.84146537  0.36243621  0.71553013     0.06500
C515        C  0.87938231  0.38331292  0.70949764    -0.06600
H516        H  0.79626272  0.32914534  0.68127955     0.07200
H517        H  0.90150822  0.39836265  0.72635514     0.08400
Cu518      Cu  0.84678249  0.34584828  0.61701814     0.44200
Cu519      Cu  0.93604773  0.40260765  0.65643194     0.42000
Cu520      Cu  0.93328680  0.37817267  0.57518570     0.43900
N521        N  0.85037914  0.34173282  0.56839164    -0.35200
N522        N  0.88209522  0.35482956  0.55314188    -0.29500
C523        C  0.87569672  0.35177285  0.52187121    -0.05600
C524        C  0.83811803  0.33565001  0.51712735     0.06600
C525        C  0.82290818  0.32945347  0.54720630     0.00400
H526        H  0.89700335  0.36118249  0.50388566     0.08100
H527        H  0.79433874  0.31864858  0.55323943     0.07200
N528        N  0.98128120  0.40273912  0.60230965    -0.36700
N529        N  0.98258248  0.41329661  0.63182638    -0.28900
C530        C  0.01714484  0.42854288  0.64293768    -0.04100
C531        C  0.03865308  0.42711428  0.61942733     0.04500
C532        C  0.01491153  0.41050035  0.59399799     0.02600
H533        H  0.02562637  0.43874612  0.66674989     0.07700
H534        H  0.02161903  0.40463274  0.57107684     0.06500
N535        N  0.03513726  0.64910471  0.93441779    -0.27800
N536        N  0.06746331  0.66610243  0.91950699    -0.35700
C537        C  0.09457487  0.67825102  0.94097878     0.00500
C538        C  0.07860893  0.66874158  0.97098739     0.06500
C539        C  0.04077451  0.65004770  0.96566873    -0.06600
H540        H  0.12382421  0.69460209  0.93510882     0.07200
H541        H  0.01880639  0.63930734  0.98314289     0.08400
Cu542      Cu  0.07350687  0.67640044  0.87111532     0.44200
Cu543      Cu  0.98507675  0.63038280  0.91271514     0.42000
Cu544      Cu  0.99113552  0.66002045  0.83234209     0.43900
N545        N  0.07169265  0.68656568  0.82338178    -0.35200
N546        N  0.04189568  0.68108186  0.80944827    -0.29500
C547        C  0.04954261  0.68958097  0.77859383    -0.05600
C548        C  0.08594493  0.70093262  0.77257801     0.06600
C549        C  0.09902986  0.69864579  0.80172224     0.00400
H550        H  0.02950738  0.68654790  0.76168343     0.08100
H551        H  0.12627853  0.70487591  0.80690784     0.07200
N552        N  0.94258739  0.63503723  0.85946123    -0.36700
N553        N  0.94008474  0.62266290  0.88848032    -0.28900
C554        C  0.90538768  0.60770630  0.89960318    -0.04100
C555        C  0.88506365  0.61120730  0.87663433     0.04500
C556        C  0.90957899  0.62869246  0.85149581     0.02600
H557        H  0.89608893  0.59641950  0.92313115     0.07700
H558        H  0.90385289  0.63625030  0.82904991     0.06500
N559        N  0.32745130  0.45756665  0.94065706    -0.27800
N560        N  0.30999184  0.47036959  0.92622773    -0.35700
C561        C  0.29753098  0.48336111  0.94811169     0.00500
C562        C  0.30739877  0.47838154  0.97786799     0.06500
C563        C  0.32648065  0.46202083  0.97200536    -0.06600
H564        H  0.28105115  0.49410252  0.94265333     0.07200
H565        H  0.33782452  0.45273532  0.98918602     0.08400
Cu566      Cu  0.30044209  0.46659725  0.87775265     0.44200
Cu567      Cu  0.34827234  0.43049165  0.91828476     0.42000
Cu568      Cu  0.32435405  0.41032706  0.83648762     0.43900
N569        N  0.29229486  0.45592858  0.82946961    -0.35200
N570        N  0.30084494  0.43501396  0.81464830    -0.29500
C571        C  0.29242787  0.43314345  0.78390497    -0.05600
C572        C  0.27779745  0.45390207  0.77884345     0.06600
C573        C  0.27824888  0.46800923  0.80842121     0.00400
H574        H  0.29737943  0.41825271  0.76646813     0.08100
H575        H  0.26902168  0.48570180  0.81432508     0.07200
N576        N  0.34863903  0.38879252  0.86217846    -0.36700
N577        N  0.35882079  0.39724532  0.89197569    -0.28900
C578        C  0.37352049  0.37878891  0.90174349    -0.04100
C579        C  0.37204876  0.35728699  0.87696006     0.04500
C580        C  0.35610692  0.36439317  0.85229159     0.02600
H581        H  0.38324009  0.37988725  0.92544707     0.07700
H582        H  0.35029076  0.35264945  0.82882914     0.06500
C583        C  0.67486392  0.55033854  0.85249476     0.85900
C584        C  0.71720696  0.57078875  0.85276568    -0.54300
C585        C  0.73121013  0.56447424  0.87897389     0.08900
C586        C  0.70075754  0.53819273  0.90316835     0.19800
C587        C  0.66034549  0.50964151  0.85777630    -0.55000
C588        C  0.67399328  0.50346051  0.88406753     0.09000
C589        C  0.66565792  0.56206578  0.88351218    -0.54600
C590        C  0.67819890  0.55490372  0.91016189     0.09500
H591        H  0.73425200  0.58716094  0.83275753     0.14000
H592        H  0.71113822  0.53242582  0.92467348    -0.00200
H593        H  0.64104524  0.48764930  0.84196538     0.14300
H594        H  0.64990427  0.57422114  0.88507384     0.14100
C595        C  0.58814287  0.33552847  0.89618410     0.79700
N596        N  0.61166826  0.32442859  0.89391838    -0.78600
C597        C  0.64895622  0.34964945  0.89501977     0.82100
N598        N  0.66265563  0.38604436  0.89764359    -0.78600
C599        C  0.63917690  0.39716067  0.89979538     0.82200
N600        N  0.60198404  0.37189730  0.89885386    -0.80300
C601        C  0.42996991  0.21406770  0.84253090     0.85900
C602        C  0.47149976  0.24146423  0.84884061    -0.54300
C603        C  0.47897705  0.26205949  0.87533837     0.08900
C604        C  0.44429962  0.25373163  0.89348634     0.19800
C605        C  0.41458888  0.19129439  0.87332369    -0.55000
C606        C  0.42211992  0.21194938  0.90003300     0.09000
C607        C  0.41385813  0.23752180  0.84237552    -0.54600
C608        C  0.42098569  0.25836671  0.86893503     0.09500
H609        H  0.49317333  0.24408580  0.83371533     0.14000
H610        H  0.45069342  0.27050264  0.91512714    -0.00200
H611        H  0.40024511  0.16170864  0.87472639     0.14300
H612        H  0.39872986  0.23791787  0.82229016     0.14100
C613        C  0.76490470  0.31916686  0.83803485     0.85900
C614        C  0.74129850  0.33436527  0.84567734    -0.54300
C615        C  0.72023074  0.31990625  0.87242461     0.08900
C616        C  0.72459656  0.29160836  0.88954954     0.19800
C617        C  0.78752395  0.32607473  0.86822942    -0.55000
C618        C  0.76681145  0.31234573  0.89544673     0.09000
C619        C  0.73724069  0.27720526  0.83745789    -0.54600
C620        C  0.71575647  0.26249572  0.86404032     0.09500
H621        H  0.74086466  0.35438977  0.83089936     0.14000
H622        H  0.70687676  0.28011638  0.91103033    -0.00200
H623        H  0.81723068  0.33973397  0.86843033     0.14300
H624        H  0.73498773  0.26050935  0.81744721     0.14100
N625        N  0.55175039  0.94781123  0.80643452    -0.27800
N626        N  0.53902655  0.91672610  0.82202464    -0.35700
C627        C  0.52928497  0.88950136  0.80119127     0.00500
C628        C  0.53596521  0.90405013  0.77093214     0.06500
C629        C  0.55032555  0.94114627  0.77529541    -0.06600
H630        H  0.51721710  0.86103876  0.80765245     0.07200
H631        H  0.55896906  0.96190896  0.75719592     0.08400
Cu632      Cu  0.53433689  0.91251725  0.87082551     0.44200
Cu633      Cu  0.56978510  0.99810391  0.82766112     0.42000
Cu634      Cu  0.56513607  0.99775436  0.91248081     0.43900
N635        N  0.53382666  0.91652104  0.91960124    -0.35200
N636        N  0.54519000  0.94751889  0.93471519    -0.29500
C637        C  0.54208146  0.94097645  0.96599340    -0.05600
C638        C  0.52799325  0.90399139  0.97097285     0.06600
C639        C  0.52308960  0.88943553  0.94085375     0.00400
H640        H  0.54951622  0.96181313  0.98368594     0.08100
H641        H  0.51297895  0.86135695  0.93465799     0.07200
N642        N  0.58618909  0.04519409  0.88538464    -0.36700
N643        N  0.58767849  0.04529060  0.85418546    -0.28900
C644        C  0.60458642  0.08020134  0.84373047    -0.04100
C645        C  0.61455687  0.10345182  0.86960674     0.04500
C646        C  0.60225482  0.08005187  0.89561685     0.02600
H647        H  0.61076978  0.08813950  0.81912123     0.07700
H648        H  0.60561143  0.08775971  0.92026860     0.06500
C649        C  0.66624151  0.20218589  0.84005579    -0.13900
C650        C  0.68657845  0.22230657  0.86680620     0.08200
C651        C  0.68043324  0.20334635  0.89533855    -0.13900
C652        C  0.65605743  0.16482665  0.89661724    -0.13900
C653        C  0.63726708  0.14450834  0.86936768     0.08200
C654        C  0.64196211  0.16382764  0.84130342    -0.13900
H655        H  0.66955207  0.21609239  0.81789157     0.12200
H656        H  0.69570399  0.21804012  0.91629233     0.12200
H657        H  0.65315120  0.15096858  0.91868121     0.12200
H658        H  0.62734537  0.14932150  0.82005402     0.12200
C659        C  0.67391360  0.33840847  0.88934036    -0.13800
C660        C  0.69504454  0.32967267  0.88269987    -0.15400
C661        C  0.54900862  0.30958318  0.89147923    -0.13800
C662        C  0.51658683  0.28825987  0.88542423    -0.15400
C663        C  0.66368407  0.46708115  0.89274993    -0.13800
C664        C  0.65340716  0.43558491  0.89750394    -0.15400
C665        C  0.36426579  0.29934529  0.85817563    -0.13900
C666        C  0.38348077  0.33115540  0.87681450     0.08200
C667        C  0.41392869  0.33799222  0.89449830    -0.13900
C668        C  0.42595150  0.31424417  0.89236626    -0.13900
C669        C  0.40727253  0.28278948  0.87298634     0.08200
C670        C  0.37565987  0.27525568  0.85660821    -0.13900
H671        H  0.34016454  0.29291362  0.84487625     0.12200
H672        H  0.42924292  0.36239513  0.90906685     0.12200
H673        H  0.45052631  0.32129520  0.90514719     0.12200
H674        H  0.35949761  0.25070497  0.84240412     0.12200
C675        C  0.83532217  0.62107241  0.86356926    -0.13900
C676        C  0.84614676  0.60025073  0.87896106     0.08200
C677        C  0.81950853  0.56894838  0.89635654    -0.13900
C678        C  0.78236231  0.55783868  0.89721387    -0.13900
C679        C  0.77126834  0.57822797  0.88116779     0.08200
C680        C  0.79850180  0.61050057  0.86499474    -0.13900
H681        H  0.85543003  0.64574979  0.85054224     0.12200
H682        H  0.82715604  0.55234730  0.90838867     0.12200
H683        H  0.76225217  0.53256511  0.90947394     0.12200
H684        H  0.79140117  0.62756376  0.85306336     0.12200
C685        C  0.78369155  0.33519318  0.74901579    -0.13900
C686        C  0.82249628  0.35435629  0.74679528     0.08200
C687        C  0.84299135  0.36464423  0.77486808    -0.13900
C688        C  0.82520315  0.35466912  0.80433451    -0.13900
C689        C  0.78615888  0.33383876  0.80668181     0.08200
C690        C  0.76586054  0.32529889  0.77850677    -0.13900
H691        H  0.76688942  0.32734828  0.72801376     0.12200
H692        H  0.87292725  0.37976194  0.77430280     0.12200
H693        H  0.84271896  0.36338842  0.82478020     0.12200
H694        H  0.73585301  0.30993672  0.77933437     0.12200
C695        C  0.83838614  0.35395017  0.96127693    -0.13900
C696        C  0.81920765  0.32971711  0.98652515     0.08200
C697        C  0.78209032  0.30026533  0.98223317    -0.13900
C698        C  0.76490745  0.29452301  0.95283008    -0.13900
C699        C  0.78431028  0.31850088  0.92726685     0.08200
C700        C  0.82107849  0.34877108  0.93226539    -0.13900
H701        H  0.86670402  0.37743840  0.96410707     0.12200
H702        H  0.76664204  0.28117880  0.50139704     0.12200
H703        H  0.73672095  0.27092906  0.95014120     0.12200
H704        H  0.83672735  0.36898321  0.91392195     0.12200
C705        C  0.66940544  0.54644453  0.79299553    -0.13900
C706        C  0.66053125  0.55615738  0.82172221     0.08200
C707        C  0.63852096  0.57053291  0.82055184    -0.13900
C708        C  0.62648132  0.57552957  0.79171008    -0.13900
C709        C  0.63592698  0.56635038  0.76310686     0.08200
C710        C  0.65737733  0.55149587  0.76414826    -0.13900
H711        H  0.68595105  0.53498786  0.79291467     0.12200
H712        H  0.63009094  0.57813060  0.84143889     0.12200
H713        H  0.60992693  0.58691308  0.79204300     0.12200
H714        H  0.66504831  0.54371768  0.74275235     0.12200
C715        C  0.67644619  0.57114006  0.99865588    -0.13900
C716        C  0.64169107  0.56619121  0.00207623     0.08200
C717        C  0.61869449  0.55574832  0.97566883    -0.13900
C718        C  0.63041751  0.55139113  0.94631135    -0.13900
C719        C  0.66583529  0.55801433  0.94228458     0.08200
C720        C  0.68849135  0.56719958  0.96892922    -0.13900
H721        H  0.69473411  0.57914606  0.51869932     0.12200
H722        H  0.59139565  0.55074640  0.97768325     0.12200
H723        H  0.61141799  0.54262046  0.92672637     0.12200
H724        H  0.71579016  0.57225924  0.96666735     0.12200
C725        C  0.50497831  0.72996816  0.59584743    -0.13900
C726        C  0.50593953  0.74936033  0.62278048     0.08200
C727        C  0.51304729  0.73982918  0.65221169    -0.13900
C728        C  0.52042346  0.71250080  0.65440261    -0.13900
C729        C  0.52070696  0.69401179  0.62719366     0.08200
C730        C  0.51226017  0.70278343  0.59800989    -0.13900
H731        H  0.49835207  0.73560368  0.57289901     0.12200
H732        H  0.51394140  0.75416452  0.67341302     0.12200
H733        H  0.52666383  0.70653333  0.67735290     0.12200
H734        H  0.51135020  0.68881386  0.57658876     0.12200
C735        C  0.52592732  0.88673100  0.55908367    -0.13900
C736        C  0.50575898  0.84793097  0.56096189     0.08200
C737        C  0.49277026  0.82789077  0.53256103    -0.13900
C738        C  0.50005285  0.84588111  0.50339920    -0.13900
C739        C  0.52032561  0.88454508  0.50176936     0.08200
C740        C  0.53311462  0.90462199  0.52999858    -0.13900
H741        H  0.53615864  0.90408975  0.57962304     0.12200
H742        H  0.47681810  0.79805548  0.53299475     0.12200
H743        H  0.48939161  0.82934235  0.98223358     0.12200
H744        H  0.54890842  0.93440263  0.52983231     0.12200
C745        C  0.51424848  0.88136374  0.68445985    -0.13900
C746        C  0.51134180  0.84780250  0.68141336     0.08200
C747        C  0.51563706  0.83211213  0.70855602    -0.13900
C748        C  0.52352180  0.85014622  0.73784834    -0.13900
C749        C  0.52740589  0.88423290  0.74040304     0.08200
C750        C  0.52249784  0.89941756  0.71336057    -0.13900
H751        H  0.50950996  0.89367765  0.66456345     0.12200
H752        H  0.51348744  0.80630319  0.70709672     0.12200
H753        H  0.52711324  0.83770276  0.75833438     0.12200
H754        H  0.52424228  0.92503372  0.71452410     0.12200
C755        C  0.37477002  0.73459901  0.64192463    -0.13800
C756        C  0.40721094  0.75624508  0.63565904    -0.15400
C757        C  0.24993426  0.70531212  0.64083207    -0.13800
C758        C  0.22873905  0.71398997  0.63471931    -0.15400
C759        C  0.07786922  0.67467149  0.53007352    -0.13900
C760        C  0.09782127  0.68006981  0.50198739     0.08200
C761        C  0.13643375  0.69766510  0.50377147    -0.13900
C762        C  0.15458590  0.71006299  0.53275774    -0.13900
C763        C  0.13477173  0.70508391  0.56093032     0.08200
C764        C  0.09598635  0.68702052  0.55906842    -0.13900
H765        H  0.04816710  0.66154584  0.52981523     0.12200
H766        H  0.15286779  0.70223997  0.98279382     0.12200
H767        H  0.18446702  0.72406244  0.53318191     0.12200
H768        H  0.07908964  0.68280766  0.57948083     0.12200
C769        C  0.13911283  0.71358203  0.73742428    -0.13900
C770        C  0.10547877  0.71087852  0.74139465     0.08200
C771        C  0.08996952  0.71664494  0.71491704    -0.13900
C772        C  0.10684471  0.72362689  0.68515771    -0.13900
C773        C  0.13974821  0.72511258  0.68100619     0.08200
C774        C  0.15606833  0.72066564  0.70756286    -0.13900
H775        H  0.15194043  0.70926593  0.75715330     0.12200
H776        H  0.06457165  0.71554805  0.71698655     0.12200
H777        H  0.09398364  0.72775840  0.66530353     0.12200
H778        H  0.18123929  0.72134440  0.70510696     0.12200
C779        C  0.12865229  0.43410999  0.60550038    -0.13900
C780        C  0.15413014  0.46530191  0.62348504     0.08200
C781        C  0.14076875  0.48295136  0.64101054    -0.13900
C782        C  0.10315815  0.47013113  0.64016999    -0.13900
C783        C  0.07816052  0.43979803  0.62134048     0.08200
C784        C  0.09126604  0.42180190  0.60417143    -0.13900
H785        H  0.13749750  0.41910595  0.59229316     0.12200
H786        H  0.15943536  0.50739691  0.65463799     0.12200
H787        H  0.09384377  0.48467744  0.65350797     0.12200
H788        H  0.07250776  0.39794386  0.58990229     0.12200
C789        C  0.26052766  0.57647353  0.64228728    -0.13800
C790        C  0.27049251  0.60790099  0.64715417    -0.15400
C791        C  0.28922386  0.47580203  0.56622671    -0.13900
C792        C  0.27050626  0.49361223  0.56825042     0.08200
C793        C  0.26601914  0.50803040  0.54024925    -0.13900
C794        C  0.27881980  0.50401622  0.51118063    -0.13900
C795        C  0.29642052  0.48524911  0.50910951     0.08200
C796        C  0.30199990  0.47176647  0.53709965    -0.13900
H797        H  0.29355386  0.46396842  0.58658618     0.12200
H798        H  0.25188773  0.52200470  0.54083904     0.12200
H799        H  0.27437652  0.51527139  0.99033069     0.12200
H800        H  0.31542941  0.45715857  0.53661683     0.12200
C801        C  0.25287002  0.49728866  0.71462683    -0.13900
C802        C  0.24855739  0.47577255  0.68819317     0.08200
C803        C  0.25145883  0.44563588  0.69239123    -0.13900
C804        C  0.26004626  0.43813776  0.72190093    -0.13900
C805        C  0.26588381  0.46048760  0.74813035     0.08200
C806        C  0.26141325  0.48971690  0.74428958    -0.13900
H807        H  0.25117959  0.52091108  0.71217819     0.12200
H808        H  0.24743532  0.42793768  0.67271961     0.12200
H809        H  0.26236496  0.41488474  0.72397788     0.12200
H810        H  0.26571210  0.50755200  0.76390570     0.12200
C811        C  0.39797014  0.13717314  0.78055069    -0.13900
C812        C  0.41088828  0.15756766  0.75229024     0.08200
C813        C  0.43022368  0.19612679  0.75395700    -0.13900
C814        C  0.43622483  0.21368078  0.78308621    -0.13900
C815        C  0.42299524  0.19331867  0.81145516     0.08200
C816        C  0.40383653  0.15466877  0.80964326    -0.13900
H817        H  0.38295227  0.10745973  0.78044794     0.12200
H818        H  0.44080157  0.21294691  0.73283983     0.12200
H819        H  0.45119069  0.24345406  0.78351062     0.12200
H820        H  0.39301531  0.13722462  0.83023534     0.12200
C821        C  0.37145370  0.14233987  0.96624903    -0.13900
C822        C  0.39575025  0.15979115  0.99170334     0.08200
C823        C  0.42739793  0.19575681  0.98746111    -0.13900
C824        C  0.43540678  0.21321596  0.95795856    -0.13900
C825        C  0.41178117  0.19516318  0.93218951     0.08200
C826        C  0.37926200  0.15987716  0.93690988    -0.13900
H827        H  0.34642888  0.11497187  0.96890954     0.12200
H828        H  0.44674775  0.20990127  0.50657906     0.12200
H829        H  0.46088967  0.24019413  0.95507038     0.12200
H830        H  0.35995900  0.14555393  0.91779005     0.12200
C831        C  0.26053090  0.87652948  0.64789819    -0.13900
C832        C  0.27779577  0.89733093  0.62028909     0.08200
C833        C  0.27342826  0.87865851  0.59192799    -0.13900
C834        C  0.25100713  0.84023944  0.59081779    -0.13900
C835        C  0.23220841  0.81946628  0.61800486     0.08200
C836        C  0.23792091  0.83792644  0.64675302    -0.13900
H837        H  0.26331448  0.89001863  0.67016179     0.12200
H838        H  0.28703334  0.89368972  0.57039914     0.12200
H839        H  0.24800082  0.82677736  0.56847035     0.12200
H840        H  0.22367621  0.82266942  0.66805172     0.12200
loop_ 
_geom_bond_atom_site_label_1 
_geom_bond_atom_site_label_2 
_geom_bond_distance 
_geom_bond_site_symmetry_2 
_ccdc_geom_bond_type 
N1            N2   1.322       .  A
N1            C5   1.345       .  A
N1           Cu9   2.080       .  S
N2            C3   1.346       .  A
N2           Cu8   2.077       .  S
C3            C4   1.386       .  A
C3            H6   1.082       .  S
C4            C5   1.387       .  A
C4          C822   1.483   1_554  S
C5            H7   1.082       .  S
Cu8          N11   2.077       .  S
Cu9          N19   2.080   1_545  S
Cu10         N12   2.070       .  S
Cu10         N18   2.069   1_545  S
N11          N12   1.321       .  A
N11          C15   1.346       .  A
N12          C13   1.342       .  A
C13          C14   1.388       .  A
C13          H16   1.081       .  S
C14          C15   1.390       .  A
C14         C392   1.488       .  S
C15          H17   1.081       .  S
N18          N19   1.321       .  A
N18          C22   1.346       .  A
N19          C20   1.344       .  A
C20          C21   1.389       .  A
C20          H23   1.081       .  S
C21          C22   1.386       .  A
C21         C412   1.485       .  S
C22          H24   1.081       .  S
C25          C26   1.535       .  S
C25          C31   1.542       .  S
C25          C29   1.536       .  S
C25         C372   1.530       .  S
C26          H33   1.085       .  S
C26          C27   1.369       .  D
C27          C28   1.548       .  S
C27         C360   1.497       .  S
C28          C32   1.545       .  S
C28          C30   1.536       .  S
C28          H34   1.109       .  S
C29          H35   1.087       .  S
C29          C30   1.361       .  D
C30         C369   1.443       .  S
C31          H36   1.081       .  S
C31          C32   1.370       .  D
C32         C382   1.492       .  S
C37          C38   1.537       .  S
C37          C43   1.533       .  S
C37          C41   1.545       .  S
C37         C343   1.530       .  S
C38          H45   1.087       .  S
C38          C39   1.362       .  D
C39          C40   1.537       .  S
C39         C338   1.444       .  S
C40          C44   1.543       .  S
C40          C42   1.542       .  S
C40          H46   1.110       .  S
C41          H47   1.081       .  S
C41          C42   1.370       .  D
C42         C353   1.490       .  S
C43          H48   1.086       .  S
C43          C44   1.366       .  D
C44         C415   1.487       .  S
C49          N50   1.358       .  A
C49          N54   1.357       .  A
C49         C335   1.438       .  S
N50          C51   1.358       .  A
C51          N52   1.358       .  A
C51         C337   1.438       .  S
N52          C53   1.358       .  A
C53          N54   1.358       .  A
C53         C370   1.438       .  S
C55          C56   1.539       .  S
C55          C61   1.533       .  S
C55          C59   1.538       .  S
C55         C316   1.533       .  S
C56          H63   1.087       .  S
C56          C57   1.363       .  D
C57          C58   1.535       .  S
C57         C336   1.444       .  S
C58          C62   1.549       .  S
C58          C60   1.545       .  S
C58          H64   1.110       .  S
C59          H65   1.078       .  S
C59          C60   1.367       .  D
C60         C326   1.493       .  S
C61          H66   1.086       .  S
C61          C62   1.370       .  D
C62         C306   1.493       .  S
N67          N68   1.322       .  A
N67          C71   1.344       .  A
N67         Cu75   2.083       .  S
N68          C69   1.348       .  A
N68         Cu74   2.070       .  S
C69          C70   1.385       .  A
C69          H72   1.082       .  S
C70          C71   1.387       .  A
C70         C716   1.482       .  S
C71          H73   1.082       .  S
Cu74         N77   2.071       .  S
Cu75         N85   2.084       .  S
Cu76         N78   2.078       .  S
Cu76         N84   2.077       .  S
N77          N78   1.322       .  A
N77          C81   1.343       .  A
N78          C79   1.344       .  A
C79          C80   1.389       .  A
C79          H82   1.081       .  S
C80          C81   1.387       .  A
C80         C289   1.487       .  S
C81          H83   1.081       .  S
N84          N85   1.321       .  A
N84          C88   1.347       .  A
N85          C86   1.345       .  A
C86          C87   1.391       .  A
C86          H89   1.081       .  S
C87          C88   1.390       .  A
C87         C309   1.492       .  S
C88          H90   1.081       .  S
N91          N92   1.322       .  A
N91          C95   1.344       .  A
N91         Cu99   2.076       .  S
N92          C93   1.346       .  A
N92         Cu98   2.078       .  S
C93          C94   1.389       .  A
C93          H96   1.081       .  S
C94          C95   1.388       .  A
C94         C266   1.488       .  S
C95          H97   1.081       .  S
Cu98        N101   2.077       .  S
Cu99        N109   2.076       .  S
Cu100       N102   2.086       .  S
Cu100       N108   2.086       .  S
N101        N102   1.323       .  A
N101        C105   1.348       .  A
N102        C103   1.345       .  A
C103        C104   1.387       .  A
C103        H106   1.082       .  S
C104        C105   1.385       .  A
C104        C696   1.482   1_554  S
C105        H107   1.082       .  S
N108        N109   1.322       .  A
N108        C112   1.347   1_655  A
N109        C110   1.346   1_655  A
C110        C111   1.385       .  A
C110        H113   1.082       .  S
C111        C112   1.388       .  A
C111        C363   1.484       .  S
C112        H114   1.082       .  S
N115        N116   1.321       .  A
N115        C119   1.343       .  A
N115       Cu123   2.070   1_455  S
N116        C117   1.346       .  A
N116       Cu122   2.080       .  S
C117        C118   1.390       .  A
C117        H120   1.081       .  S
C118        C119   1.388       .  A
C118        C760   1.488       .  S
C119        H121   1.081       .  S
Cu122       N125   2.080       .  S
Cu123       N133   2.070       .  S
Cu124       N126   2.087   1_655  S
Cu124       N132   2.086       .  S
N125        N126   1.322       .  A
N125        C129   1.347       .  A
N126        C127   1.345       .  A
C127        C128   1.390       .  A
C127        H130   1.081       .  S
C128        C129   1.389       .  A
C128        C350   1.491       .  S
C129        H131   1.081       .  S
N132        N133   1.322       .  A
N132        C136   1.346       .  A
N133        C134   1.346       .  A
C134        C135   1.384       .  A
C134        H137   1.082       .  S
C135        C136   1.388       .  A
C135        C256   1.481       .  S
C136        H138   1.082       .  S
N139        N140   1.322       .  A
N139        C143   1.344       .  A
N139       Cu147   2.075       .  S
N140        C141   1.345       .  A
N140       Cu146   2.084       .  S
C141        C142   1.390       .  A
C141        H144   1.081       .  S
C142        C143   1.388       .  A
C142        C795   1.488       .  S
C143        H145   1.081       .  S
Cu146       N149   2.083       .  S
Cu147       N157   2.074       .  S
Cu148       N150   2.079       .  S
Cu148       N156   2.079       .  S
N149        N150   1.321       .  A
N149        C153   1.348       .  A
N150        C151   1.344       .  A
C151        C152   1.388       .  A
C151        H154   1.081       .  S
C152        C153   1.390       .  A
C152        C385   1.490       .  S
C153        H155   1.081       .  S
N156        N157   1.321       .  A
N156        C160   1.344       .  A
N157        C158   1.348       .  A
C158        C159   1.386       .  A
C158        H161   1.082       .  S
C159        C160   1.386       .  A
C159        C246   1.481       .  S
C160        H162   1.082       .  S
C163        C164   1.532       .  S
C163        C169   1.538       .  S
C163        C167   1.537       .  S
C163        C286   1.530       .  S
C164        H171   1.085       .  S
C164        C165   1.370       .  D
C165        C166   1.550       .  S
C165        C259   1.495       .  S
C166        C170   1.544       .  S
C166        C168   1.533       .  S
C166        H172   1.109       .  S
C167        H173   1.087       .  S
C167        C168   1.362       .  D
C168        C243   1.440       .  S
C169        H174   1.079       .  S
C169        C170   1.367       .  D
C170        C299   1.492       .  S
C175        N176   1.359       .  A
C175        N180   1.356       .  A
C175        C241   1.438       .  S
N176        C177   1.359       .  A
C177        N178   1.358       .  A
C177        C239   1.439       .  S
N178        C179   1.358       .  A
C179        N180   1.356       .  A
C179        C244   1.434       .  S
C181        C182   1.534       .  S
C181        C187   1.533       .  S
C181        C185   1.544       .  S
C181        C395   1.530       .  S
C182        H189   1.087       .  S
C182        C183   1.360       .  D
C183        C184   1.538       .  S
C183        C242   1.443       .  S
C184        C188   1.548       .  S
C184        C186   1.541       .  S
C184        H190   1.108       .  S
C185        H191   1.080       .  S
C185        C186   1.369       .  D
C186        C405   1.489       .  S
C187        H192   1.085       .  S
C187        C188   1.370       .  D
C188        C249   1.497       .  S
C193        C194   1.536       .  S
C193        C199   1.533       .  S
C193        C197   1.542       .  S
C193        C269   1.532       .  S
C194        H201   1.087       .  S
C194        C195   1.363       .  D
C195        C196   1.538       .  S
C195        C240   1.445       .  S
C196        C200   1.546       .  S
C196        C198   1.548       .  S
C196        H202   1.109       .  S
C197        H203   1.078       .  S
C197        C198   1.371       .  D
C198        C279   1.500       .  S
C199        H204   1.086       .  S
C199        C200   1.366       .  D
C200        C230   1.490       .  S
N205        N206   1.322       .  A
N205        C209   1.343       .  A
N205       Cu213   2.084       .  S
N206        C207   1.347       .  A
N206       Cu212   2.072       .  S
C207        C208   1.385       .  A
C207        H210   1.082       .  S
C208        C209   1.388       .  A
C208        C329   1.484       .  S
C209        H211   1.081       .  S
Cu212       N215   2.072       .  S
Cu213       N223   2.083   1_565  S
Cu214       N216   2.082       .  S
Cu214       N222   2.081   1_565  S
N215        N216   1.321       .  A
N215        C219   1.345       .  A
N216        C217   1.344       .  A
C217        C218   1.389       .  A
C217        H220   1.081       .  S
C218        C219   1.387       .  A
C218        C739   1.488       .  S
C219        H221   1.081       .  S
N222        N223   1.321       .  A
N222        C226   1.347       .  A
N223        C224   1.346       .  A
C224        C225   1.390       .  A
C224        H227   1.081       .  S
C225        C226   1.389       .  A
C225        C233   1.490       .  S
C226        H228   1.081       .  S
C229        C230   1.407       .  A
C229        C234   1.397       .  A
C229        H235   1.083       .  S
C230        C231   1.403       .  A
C231        C232   1.403       .  A
C231        H236   1.082       .  S
C232        C233   1.409       .  A
C232        H237   1.082       .  S
C233        C234   1.405       .  A
C234        H238   1.082       .  S
C239        C240   1.208       .  T
C241        C242   1.207       .  T
C243        C244   1.205       .  T
C245        C246   1.401       .  A
C245        C250   1.395       .  A
C245        H251   1.083       .  S
C246        C247   1.405       .  A
C247        C248   1.404       .  A
C247        H252   1.083       .  S
C248        C249   1.408       .  A
C248        H253   1.081       .  S
C249        C250   1.409       .  A
C250        H254   1.081       .  S
C255        C256   1.401       .  A
C255        C260   1.397       .  A
C255        H261   1.083       .  S
C256        C257   1.405       .  A
C257        C258   1.403       .  A
C257        H262   1.083       .  S
C258        C259   1.407       .  A
C258        H263   1.082       .  S
C259        C260   1.409       .  A
C260        H264   1.082       .  S
C265        C266   1.405       .  A
C265        C270   1.399       .  A
C265        H271   1.081       .  S
C266        C267   1.405       .  A
C267        C268   1.397       .  A
C267        H272   1.081       .  S
C268        C269   1.410       .  A
C268        H273   1.076       .  S
C269        C270   1.409       .  A
C270        H274   1.083       .  S
C275        C276   1.401       .  A
C275        C280   1.395       .  A
C275        H281   1.083       .  S
C276        C277   1.405       .  A
C276        C524   1.482       .  S
C277        C278   1.404       .  A
C277        H702   1.083       .  S
C278        C279   1.408       .  A
C278        H283   1.080       .  S
C279        C280   1.411       .  A
C280        H284   1.081       .  S
H282        C697   1.083   1_554  S
C285        C286   1.408       .  A
C285        C290   1.397       .  A
C285        H291   1.083       .  S
C286        C287   1.411       .  A
C287        C288   1.397       .  A
C287        H292   1.076       .  S
C288        C289   1.404       .  A
C288        H293   1.081       .  S
C289        C290   1.406       .  A
C290        H294   1.081       .  S
C295        C296   1.408       .  A
C295        C300   1.406       .  A
C295        H721   1.083       .  S
C296        C297   1.400       .  A
C296        C490   1.482       .  S
C297        C298   1.392       .  A
C297        H302   1.083       .  S
C298        C299   1.408       .  A
C298        H303   1.082       .  S
C299        C300   1.406       .  A
C300        H304   1.082       .  S
H301        C715   1.083   1_554  S
C305        C306   1.407       .  A
C305        C310   1.396       .  A
C305        H311   1.082       .  S
C306        C307   1.404       .  A
C307        C308   1.405       .  A
C307        H312   1.082       .  S
C308        C309   1.410       .  A
C308        H313   1.081       .  S
C309        C310   1.405       .  A
C310        H314   1.081       .  S
C315        C316   1.412       .  A
C315        C320   1.396       .  A
C315        H321   1.075       .  S
C316        C317   1.409       .  A
C317        C318   1.400       .  A
C317        H322   1.083       .  S
C318        C319   1.406       .  A
C318        H743   1.082   1_554  S
C319        C320   1.403       .  A
C319        C638   1.488   1_554  S
C320        H324   1.081       .  S
H323        C738   1.082       .  S
C325        C326   1.408       .  A
C325        C330   1.391       .  A
C325        H331   1.082       .  S
C326        C327   1.406       .  A
C327        C328   1.406       .  A
C327        H332   1.082       .  S
C328        C329   1.409       .  A
C328        H333   1.082       .  S
C329        C330   1.401       .  A
C330        H334   1.082       .  S
C335        C336   1.207       .  T
C337        C338   1.207       .  T
C339        C340   1.406       .  A
C339        C344   1.398       .  A
C339        H345   1.081       .  S
C340        C341   1.405       .  A
C340        C538   1.488   1_554  S
C341        C342   1.398       .  A
C341        H766   1.081   1_554  S
C342        C343   1.409       .  A
C342        H347   1.083       .  S
C343        C344   1.409       .  A
C344        H348   1.077       .  S
H346        C761   1.081       .  S
C349        C350   1.409       .  A
C349        C354   1.403       .  A
C349        H355   1.081       .  S
C350        C351   1.406       .  A
C351        C352   1.398       .  A
C351        H356   1.081       .  S
C352        C353   1.405       .  A
C352        H357   1.083       .  S
C353        C354   1.404       .  A
C354        H358   1.083       .  S
C359        C360   1.410       .  A
C359        C364   1.399       .  A
C359        H365   1.082       .  S
C360        C361   1.407       .  A
C361        C362   1.402       .  A
C361        H366   1.081       .  S
C362        C363   1.405       .  A
C362        H367   1.083       .  S
C363        C364   1.403       .  A
C364        H368   1.083       .  S
C369        C370   1.207       .  T
C371        C372   1.410       .  A
C371        C376   1.399       .  A
C371        H377   1.077       .  S
C372        C373   1.409       .  A
C373        C374   1.397       .  A
C373        H378   1.083       .  S
C374        C375   1.404       .  A
C374        H799   1.081   1_554  S
C375        C376   1.406       .  A
C375        C562   1.488   1_554  S
C376        H380   1.081       .  S
H379        C794   1.081       .  S
C381        C382   1.406       .  A
C381        C386   1.403       .  A
C381        H387   1.082       .  S
C382        C383   1.406       .  A
C383        C384   1.397       .  A
C383        H388   1.083       .  S
C384        C385   1.406       .  A
C384        H389   1.082       .  S
C385        C386   1.408       .  A
C386        H390   1.082       .  S
C391        C392   1.405       .  A
C391        C396   1.396       .  A
C391        H397   1.081       .  S
C392        C393   1.405       .  A
C393        C394   1.398       .  A
C393        H398   1.081       .  S
C394        C395   1.409       .  A
C394        H399   1.083       .  S
C395        C396   1.409       .  A
C396        H400   1.076       .  S
C401        C402   1.404       .  A
C401        C406   1.397       .  A
C401        H407   1.082       .  S
C402        C403   1.406       .  A
C402        C424   1.483       .  S
C403        C404   1.401       .  A
C403        H828   1.082       .  S
C404        C405   1.405       .  A
C404        H409   1.082       .  S
C405        C406   1.406       .  A
C406        H410   1.083       .  S
H408        C823   1.082   1_554  S
C411        C412   1.408       .  A
C411        C416   1.402       .  A
C411        H417   1.082       .  S
C412        C413   1.404       .  A
C413        C414   1.395       .  A
C413        H418   1.082       .  S
C414        C415   1.406       .  A
C414        H419   1.083       .  S
C415        C416   1.404       .  A
C416        H420   1.083       .  S
N421        N422   1.322       .  A
N421        C425   1.345       .  A
N421       Cu429   2.080       .  S
N422        C423   1.346       .  A
N422       Cu428   2.077       .  S
C423        C424   1.386       .  A
C423        H426   1.082       .  S
C424        C425   1.387       .  A
C425        H427   1.082       .  S
Cu428       N431   2.077       .  S
Cu429       N439   2.080   1_545  S
Cu430       N432   2.070       .  S
Cu430       N438   2.069   1_545  S
N431        N432   1.321       .  A
N431        C435   1.346       .  A
N432        C433   1.342       .  A
C433        C434   1.388       .  A
C433        H436   1.081       .  S
C434        C435   1.390       .  A
C434        C812   1.488       .  S
C435        H437   1.081       .  S
N438        N439   1.321       .  A
N438        C442   1.346       .  A
N439        C440   1.344       .  A
C440        C441   1.389       .  A
C440        H443   1.081       .  S
C441        C442   1.386       .  A
C441        C832   1.485       .  S
C442        H444   1.081       .  S
C445        C446   1.535       .  S
C445        C451   1.542       .  S
C445        C449   1.536       .  S
C445        C792   1.530       .  S
C446        H453   1.085       .  S
C446        C447   1.369       .  D
C447        C448   1.548       .  S
C447        C780   1.497       .  S
C448        C452   1.545       .  S
C448        C450   1.536       .  S
C448        H454   1.109       .  S
C449        H455   1.087       .  S
C449        C450   1.361       .  D
C450        C789   1.443       .  S
C451        H456   1.081       .  S
C451        C452   1.370       .  D
C452        C802   1.492       .  S
C457        C458   1.537       .  S
C457        C463   1.533       .  S
C457        C461   1.545       .  S
C457        C763   1.530       .  S
C458        H465   1.087       .  S
C458        C459   1.362       .  D
C459        C460   1.537       .  S
C459        C758   1.444       .  S
C460        C464   1.543       .  S
C460        C462   1.542       .  S
C460        H466   1.110       .  S
C461        H467   1.081       .  S
C461        C462   1.370       .  D
C462        C773   1.490       .  S
C463        H468   1.086       .  S
C463        C464   1.366       .  D
C464        C835   1.487       .  S
C469        N470   1.358       .  A
C469        N474   1.357       .  A
C469        C755   1.438       .  S
N470        C471   1.358       .  A
C471        N472   1.358       .  A
C471        C757   1.438       .  S
N472        C473   1.358       .  A
C473        N474   1.358       .  A
C473        C790   1.438       .  S
C475        C476   1.539       .  S
C475        C481   1.533       .  S
C475        C479   1.538       .  S
C475        C736   1.533       .  S
C476        H483   1.087       .  S
C476        C477   1.363       .  D
C477        C478   1.535       .  S
C477        C756   1.444       .  S
C478        C482   1.549       .  S
C478        C480   1.545       .  S
C478        H484   1.110       .  S
C479        H485   1.078       .  S
C479        C480   1.367       .  D
C480        C746   1.493       .  S
C481        H486   1.086       .  S
C481        C482   1.370       .  D
C482        C726   1.493       .  S
N487        N488   1.322       .  A
N487        C491   1.344       .  A
N487       Cu495   2.083       .  S
N488        C489   1.348       .  A
N488       Cu494   2.070       .  S
C489        C490   1.385       .  A
C489        H492   1.082       .  S
C490        C491   1.387       .  A
C491        H493   1.082       .  S
Cu494       N497   2.071       .  S
Cu495       N505   2.084       .  S
Cu496       N498   2.078       .  S
Cu496       N504   2.077       .  S
N497        N498   1.322       .  A
N497        C501   1.343       .  A
N498        C499   1.344       .  A
C499        C500   1.389       .  A
C499        H502   1.081       .  S
C500        C501   1.387       .  A
C500        C709   1.487       .  S
C501        H503   1.081       .  S
N504        N505   1.321       .  A
N504        C508   1.347       .  A
N505        C506   1.345       .  A
C506        C507   1.391       .  A
C506        H509   1.081       .  S
C507        C508   1.390       .  A
C507        C729   1.492       .  S
C508        H510   1.081       .  S
N511        N512   1.322       .  A
N511        C515   1.344       .  A
N511       Cu519   2.076       .  S
N512        C513   1.346       .  A
N512       Cu518   2.078       .  S
C513        C514   1.389       .  A
C513        H516   1.081       .  S
C514        C515   1.388       .  A
C514        C686   1.488       .  S
C515        H517   1.081       .  S
Cu518       N521   2.077       .  S
Cu519       N529   2.076       .  S
Cu520       N522   2.086       .  S
Cu520       N528   2.086       .  S
N521        N522   1.323       .  A
N521        C525   1.348       .  A
N522        C523   1.345       .  A
C523        C524   1.387       .  A
C523        H526   1.082       .  S
C524        C525   1.385       .  A
C525        H527   1.082       .  S
N528        N529   1.322       .  A
N528        C532   1.347   1_655  A
N529        C530   1.346   1_655  A
C530        C531   1.385       .  A
C530        H533   1.082       .  S
C531        C532   1.388       .  A
C531        C783   1.484       .  S
C532        H534   1.082       .  S
N535        N536   1.321       .  A
N535        C539   1.343       .  A
N535       Cu543   2.070   1_455  S
N536        C537   1.346       .  A
N536       Cu542   2.080       .  S
C537        C538   1.390       .  A
C537        H540   1.081       .  S
C538        C539   1.388       .  A
C539        H541   1.081       .  S
Cu542       N545   2.080       .  S
Cu543       N553   2.070       .  S
Cu544       N546   2.087   1_655  S
Cu544       N552   2.086       .  S
N545        N546   1.322       .  A
N545        C549   1.347       .  A
N546        C547   1.345       .  A
C547        C548   1.390       .  A
C547        H550   1.081       .  S
C548        C549   1.389       .  A
C548        C770   1.491       .  S
C549        H551   1.081       .  S
N552        N553   1.322       .  A
N552        C556   1.346       .  A
N553        C554   1.346       .  A
C554        C555   1.384       .  A
C554        H557   1.082       .  S
C555        C556   1.388       .  A
C555        C676   1.481       .  S
C556        H558   1.082       .  S
N559        N560   1.322       .  A
N559        C563   1.344       .  A
N559       Cu567   2.075       .  S
N560        C561   1.345       .  A
N560       Cu566   2.084       .  S
C561        C562   1.390       .  A
C561        H564   1.081       .  S
C562        C563   1.388       .  A
C563        H565   1.081       .  S
Cu566       N569   2.083       .  S
Cu567       N577   2.074       .  S
Cu568       N570   2.079       .  S
Cu568       N576   2.079       .  S
N569        N570   1.321       .  A
N569        C573   1.348       .  A
N570        C571   1.344       .  A
C571        C572   1.388       .  A
C571        H574   1.081       .  S
C572        C573   1.390       .  A
C572        C805   1.490       .  S
C573        H575   1.081       .  S
N576        N577   1.321       .  A
N576        C580   1.344       .  A
N577        C578   1.348       .  A
C578        C579   1.386       .  A
C578        H581   1.082       .  S
C579        C580   1.386       .  A
C579        C666   1.481       .  S
C580        H582   1.082       .  S
C583        C584   1.532       .  S
C583        C589   1.538       .  S
C583        C587   1.537       .  S
C583        C706   1.530       .  S
C584        H591   1.085       .  S
C584        C585   1.370       .  D
C585        C586   1.550       .  S
C585        C679   1.495       .  S
C586        C590   1.544       .  S
C586        C588   1.533       .  S
C586        H592   1.109       .  S
C587        H593   1.087       .  S
C587        C588   1.362       .  D
C588        C663   1.440       .  S
C589        H594   1.079       .  S
C589        C590   1.367       .  D
C590        C719   1.492       .  S
C595        N596   1.359       .  A
C595        N600   1.356       .  A
C595        C661   1.438       .  S
N596        C597   1.359       .  A
C597        N598   1.358       .  A
C597        C659   1.439       .  S
N598        C599   1.358       .  A
C599        N600   1.356       .  A
C599        C664   1.434       .  S
C601        C602   1.534       .  S
C601        C607   1.533       .  S
C601        C605   1.544       .  S
C601        C815   1.530       .  S
C602        H609   1.087       .  S
C602        C603   1.360       .  D
C603        C604   1.538       .  S
C603        C662   1.443       .  S
C604        C608   1.548       .  S
C604        C606   1.541       .  S
C604        H610   1.108       .  S
C605        H611   1.080       .  S
C605        C606   1.369       .  D
C606        C825   1.489       .  S
C607        H612   1.085       .  S
C607        C608   1.370       .  D
C608        C669   1.497       .  S
C613        C614   1.536       .  S
C613        C619   1.533       .  S
C613        C617   1.542       .  S
C613        C689   1.532       .  S
C614        H621   1.087       .  S
C614        C615   1.363       .  D
C615        C616   1.538       .  S
C615        C660   1.445       .  S
C616        C620   1.546       .  S
C616        C618   1.548       .  S
C616        H622   1.109       .  S
C617        H623   1.078       .  S
C617        C618   1.371       .  D
C618        C699   1.500       .  S
C619        H624   1.086       .  S
C619        C620   1.366       .  D
C620        C650   1.490       .  S
N625        N626   1.322       .  A
N625        C629   1.343       .  A
N625       Cu633   2.084       .  S
N626        C627   1.347       .  A
N626       Cu632   2.072       .  S
C627        C628   1.385       .  A
C627        H630   1.082       .  S
C628        C629   1.388       .  A
C628        C749   1.484       .  S
C629        H631   1.081       .  S
Cu632       N635   2.072       .  S
Cu633       N643   2.083   1_565  S
Cu634       N636   2.082       .  S
Cu634       N642   2.081   1_565  S
N635        N636   1.321       .  A
N635        C639   1.345       .  A
N636        C637   1.344       .  A
C637        C638   1.389       .  A
C637        H640   1.081       .  S
C638        C639   1.387       .  A
C639        H641   1.081       .  S
N642        N643   1.321       .  A
N642        C646   1.347       .  A
N643        C644   1.346       .  A
C644        C645   1.390       .  A
C644        H647   1.081       .  S
C645        C646   1.389       .  A
C645        C653   1.490       .  S
C646        H648   1.081       .  S
C649        C650   1.407       .  A
C649        C654   1.397       .  A
C649        H655   1.083       .  S
C650        C651   1.403       .  A
C651        C652   1.403       .  A
C651        H656   1.082       .  S
C652        C653   1.409       .  A
C652        H657   1.082       .  S
C653        C654   1.405       .  A
C654        H658   1.082       .  S
C659        C660   1.208       .  T
C661        C662   1.207       .  T
C663        C664   1.205       .  T
C665        C666   1.401       .  A
C665        C670   1.395       .  A
C665        H671   1.083       .  S
C666        C667   1.405       .  A
C667        C668   1.404       .  A
C667        H672   1.083       .  S
C668        C669   1.408       .  A
C668        H673   1.081       .  S
C669        C670   1.409       .  A
C670        H674   1.081       .  S
C675        C676   1.401       .  A
C675        C680   1.397       .  A
C675        H681   1.083       .  S
C676        C677   1.405       .  A
C677        C678   1.403       .  A
C677        H682   1.083       .  S
C678        C679   1.407       .  A
C678        H683   1.082       .  S
C679        C680   1.409       .  A
C680        H684   1.082       .  S
C685        C686   1.405       .  A
C685        C690   1.399       .  A
C685        H691   1.081       .  S
C686        C687   1.405       .  A
C687        C688   1.397       .  A
C687        H692   1.081       .  S
C688        C689   1.410       .  A
C688        H693   1.076       .  S
C689        C690   1.409       .  A
C690        H694   1.083       .  S
C695        C696   1.401       .  A
C695        C700   1.395       .  A
C695        H701   1.083       .  S
C696        C697   1.405       .  A
C697        C698   1.404       .  A
C698        C699   1.408       .  A
C698        H703   1.080       .  S
C699        C700   1.411       .  A
C700        H704   1.081       .  S
C705        C706   1.408       .  A
C705        C710   1.397       .  A
C705        H711   1.083       .  S
C706        C707   1.411       .  A
C707        C708   1.397       .  A
C707        H712   1.076       .  S
C708        C709   1.404       .  A
C708        H713   1.081       .  S
C709        C710   1.406       .  A
C710        H714   1.081       .  S
C715        C716   1.408   1_556  A
C715        C720   1.406       .  A
C716        C717   1.400   1_554  A
C717        C718   1.392       .  A
C717        H722   1.083       .  S
C718        C719   1.408       .  A
C718        H723   1.082       .  S
C719        C720   1.406       .  A
C720        H724   1.082       .  S
C725        C726   1.407       .  A
C725        C730   1.396       .  A
C725        H731   1.082       .  S
C726        C727   1.404       .  A
C727        C728   1.405       .  A
C727        H732   1.082       .  S
C728        C729   1.410       .  A
C728        H733   1.081       .  S
C729        C730   1.405       .  A
C730        H734   1.081       .  S
C735        C736   1.412       .  A
C735        C740   1.396       .  A
C735        H741   1.075       .  S
C736        C737   1.409       .  A
C737        C738   1.400       .  A
C737        H742   1.083       .  S
C738        C739   1.406       .  A
C739        C740   1.403       .  A
C740        H744   1.081       .  S
C745        C746   1.408       .  A
C745        C750   1.391       .  A
C745        H751   1.082       .  S
C746        C747   1.406       .  A
C747        C748   1.406       .  A
C747        H752   1.082       .  S
C748        C749   1.409       .  A
C748        H753   1.082       .  S
C749        C750   1.401       .  A
C750        H754   1.082       .  S
C755        C756   1.207       .  T
C757        C758   1.207       .  T
C759        C760   1.406       .  A
C759        C764   1.398       .  A
C759        H765   1.081       .  S
C760        C761   1.405       .  A
C761        C762   1.398       .  A
C762        C763   1.409       .  A
C762        H767   1.083       .  S
C763        C764   1.409       .  A
C764        H768   1.077       .  S
C769        C770   1.409       .  A
C769        C774   1.403       .  A
C769        H775   1.081       .  S
C770        C771   1.406       .  A
C771        C772   1.398       .  A
C771        H776   1.081       .  S
C772        C773   1.405       .  A
C772        H777   1.083       .  S
C773        C774   1.404       .  A
C774        H778   1.083       .  S
C779        C780   1.410       .  A
C779        C784   1.399       .  A
C779        H785   1.082       .  S
C780        C781   1.407       .  A
C781        C782   1.402       .  A
C781        H786   1.081       .  S
C782        C783   1.405       .  A
C782        H787   1.083       .  S
C783        C784   1.403       .  A
C784        H788   1.083       .  S
C789        C790   1.207       .  T
C791        C792   1.410       .  A
C791        C796   1.399       .  A
C791        H797   1.077       .  S
C792        C793   1.409       .  A
C793        C794   1.397       .  A
C793        H798   1.083       .  S
C794        C795   1.404       .  A
C795        C796   1.406       .  A
C796        H800   1.081       .  S
C801        C802   1.406       .  A
C801        C806   1.403       .  A
C801        H807   1.082       .  S
C802        C803   1.406       .  A
C803        C804   1.397       .  A
C803        H808   1.083       .  S
C804        C805   1.406       .  A
C804        H809   1.082       .  S
C805        C806   1.408       .  A
C806        H810   1.082       .  S
C811        C812   1.405       .  A
C811        C816   1.396       .  A
C811        H817   1.081       .  S
C812        C813   1.405       .  A
C813        C814   1.398       .  A
C813        H818   1.081       .  S
C814        C815   1.409       .  A
C814        H819   1.083       .  S
C815        C816   1.409       .  A
C816        H820   1.076       .  S
C821        C822   1.404       .  A
C821        C826   1.397       .  A
C821        H827   1.082       .  S
C822        C823   1.406       .  A
C823        C824   1.401       .  A
C824        C825   1.405       .  A
C824        H829   1.082       .  S
C825        C826   1.406       .  A
C826        H830   1.083       .  S
C831        C832   1.408       .  A
C831        C836   1.402       .  A
C831        H837   1.082       .  S
C832        C833   1.404       .  A
C833        C834   1.395       .  A
C833        H838   1.082       .  S
C834        C835   1.406       .  A
C834        H839   1.083       .  S
C835        C836   1.404       .  A
C836        H840   1.083       .  S
