geometry optimzed in LAMMPS
_audit_creation_date              2020-11-30 
_audit_creation_method            'lammps2cif' 
_symmetry_space_group_name_H-M    'P1' 
_symmetry_Int_Tables_number       1 
_symmetry_cell_setting            triclinic 
loop_ 
_symmetry_equiv_pos_as_xyz 
  x,y,z 
_cell_length_a                    30.78636676 
_cell_length_b                    30.81185800860448 
_cell_length_c                    43.902165235341464 
_cell_angle_alpha                 89.99051563119474 
_cell_angle_beta                  90.01927832234176 
_cell_angle_gamma                 119.99704373737188 
loop_ 
_atom_site_label 
_atom_site_type_symbol 
_atom_site_fract_x 
_atom_site_fract_y 
_atom_site_fract_z 
_atom_site_charge 
Fe1        Fe  0.43296465  0.57034555  0.19453731     1.65800
Fe2        Fe  0.49570422  0.50684957  0.18359258     1.73200
Fe3        Fe  0.45543688  0.54642698  0.12162700     1.54400
O4          O  0.38032128  0.52604115  0.12312906    -0.83100
O5          O  0.55600235  0.54317158  0.15446086    -0.81500
O6          O  0.36686981  0.53963740  0.17112444    -0.85700
O7          O  0.46292193  0.63585121  0.17050384    -0.80500
O8          O  0.43255787  0.47167534  0.11439057    -0.82300
O9          O  0.53712075  0.56347926  0.21507135    -0.85000
C10         C  0.47811507  0.65062964  0.14365711     0.95700
C11         C  0.35173251  0.52494363  0.14425873     1.03200
O12         O  0.46142433  0.54117883  0.16651483    -1.14000
O13         O  0.43831979  0.46496570  0.21445683    -0.76400
O14         O  0.40002972  0.50904585  0.22237999    -0.79900
O15         O  0.47728975  0.62180797  0.12279142    -0.80600
C16         C  0.40489778  0.47127680  0.22727315     0.94600
O17         O  0.49501914  0.60411030  0.22162004    -0.78600
O18         O  0.46013220  0.44704241  0.15400021    -0.83800
C19         C  0.56357711  0.56395869  0.12850606     0.97300
C20         C  0.43779153  0.43860748  0.12850636     1.03200
O21         O  0.52981364  0.56774306  0.11412295    -0.79400
C22         C  0.53188085  0.59802572  0.22719211     1.01500
Fe23       Fe  0.43566335  0.86524197  0.19458705     1.65800
Fe24       Fe  0.49815176  0.99175660  0.18510072     1.73200
Fe25       Fe  0.45881022  0.91351760  0.12228227     1.54400
O26         O  0.48145897  0.86048668  0.12279116    -0.83100
O27         O  0.46398006  0.01735692  0.15534538    -0.81500
O28         O  0.46559209  0.83033138  0.17008385    -0.85700
O29         O  0.36972474  0.83047257  0.17104185    -0.80500
O30         O  0.53315391  0.96718456  0.11545101    -0.82300
O31         O  0.43972016  0.97527537  0.21544225    -0.85000
C32         C  0.35495541  0.83008409  0.14409177     0.95700
C33         C  0.48148939  0.83161244  0.14334912     1.03200
O34         O  0.46425785  0.92362049  0.16724802    -1.14000
O35         O  0.53844736  0.97564556  0.21691017    -0.76400
O36         O  0.49745177  0.89263573  0.22169650    -0.79900
O37         O  0.38377714  0.85794762  0.12313709    -0.80600
C38         C  0.53351377  0.93549491  0.22823708     0.94600
O39         O  0.40278023  0.89288818  0.22286131    -0.78600
O40         O  0.55933005  0.01616619  0.15661102    -0.83800
C41         C  0.44133442  0.00370988  0.12993772     0.97300
C42         C  0.56701882  0.00373244  0.13043326     1.03200
O43         O  0.43527391  0.96513916  0.11575950    -0.79400
C44         C  0.40679666  0.93506162  0.22810833     1.01500
Fe45       Fe  0.13751896  0.57031192  0.19474719     1.65800
Fe46       Fe  0.01107226  0.50646976  0.18467077     1.73200
Fe47       Fe  0.08998688  0.54668544  0.12231851     1.54400
O48         O  0.14711107  0.62121981  0.12346950    -0.83100
O49         O  0.98776722  0.44484662  0.15659431    -0.81500
O50         O  0.17044998  0.63707307  0.17209141    -0.85700
O51         O  0.17469277  0.54343680  0.16965557    -0.80500
O52         O  0.03957342  0.57170965  0.11591174    -0.82300
O53         O  0.02815658  0.46745302  0.21706323    -0.85000
C54         C  0.17204135  0.52493753  0.14353093     0.95700
C55         C  0.17301989  0.65091905  0.14469243     1.03200
O56         O  0.07940224  0.54104316  0.16717425    -1.14000
O57         O  0.02626476  0.56515303  0.21449915    -0.76400
O58         O  0.10802517  0.60040672  0.22379623    -0.79900
O59         O  0.14152748  0.52219139  0.12320739    -0.80600
C60         C  0.06588883  0.59702316  0.22817566     0.94600
O61         O  0.11145487  0.50741100  0.22078121    -0.78600
O62         O  0.98494065  0.53950344  0.15419815    -0.83800
C63         C  0.99941373  0.43816882  0.12993285     0.97300
C64         C  0.99972781  0.56382223  0.12935020     1.03200
O65         O  0.03505036  0.47293944  0.11485588    -0.79400
C66         C  0.06854700  0.47169175  0.22768293     1.01500
Fe67       Fe  0.47094273  0.23762748  0.02800328     1.65800
Fe68       Fe  0.34429181  0.17204783  0.01830490     1.73200
Fe69       Fe  0.42308707  0.21151768  0.45568187     1.54400
O70         O  0.47789405  0.28671617  0.45590569    -0.83100
O71         O  0.32020231  0.11095497  0.48967952    -0.81500
O72         O  0.50463189  0.30306465  0.00388392    -0.85700
O73         O  0.50734530  0.20838968  0.00423092    -0.80500
O74         O  0.37089932  0.23410324  0.44883194    -0.82300
O75         O  0.36151264  0.13206841  0.04990272    -0.85000
C76         C  0.50626150  0.19142304  0.47782066     0.95700
C77         C  0.50508786  0.31665439  0.47662793     1.03200
O78         O  0.41264327  0.20695676  0.00059697    -1.14000
O79         O  0.35930920  0.22983160  0.04890222    -0.76400
O80         O  0.44204196  0.27022934  0.05548409    -0.79900
O81         O  0.47691976  0.18987119  0.45702269    -0.80600
C82         C  0.39918837  0.26440513  0.06096929     0.94600
O83         O  0.44438843  0.17647086  0.05566490    -0.78600
O84         O  0.31883106  0.20653871  0.48858671    -0.83800
C85         C  0.33323685  0.10311771  0.46373575     0.97300
C86         C  0.33273162  0.22898924  0.46310641     1.03200
O87         O  0.37015181  0.13697255  0.44902522    -0.79400
C88         C  0.40217152  0.13888330  0.06174195     1.01500
Fe89       Fe  0.76732588  0.23571785  0.02853502     1.65800
Fe90       Fe  0.83059117  0.17259502  0.01788747     1.73200
Fe91       Fe  0.79003548  0.21179054  0.45578718     1.54400
O92         O  0.71488520  0.19190229  0.45728957    -0.83100
O93         O  0.89131446  0.20975017  0.48906747    -0.81500
O94         O  0.70082906  0.20364860  0.00553933    -0.85700
O95         O  0.79559446  0.30065899  0.00408674    -0.80500
O96         O  0.76702327  0.13694925  0.44874475    -0.82300
O97         O  0.87107114  0.22910793  0.04981791    -0.85000
C98         C  0.81132713  0.31571074  0.47736452     0.95700
C99         C  0.68600781  0.19002857  0.47850444     1.03200
O100        O  0.79608189  0.20668555  0.00065982    -1.14000
O101        O  0.77284281  0.13002963  0.04847690    -0.76400
O102        O  0.73586881  0.17519444  0.05684656    -0.79900
O103        O  0.81202645  0.28730241  0.45672176    -0.80600
C104        C  0.74019899  0.13712123  0.06169552     0.94600
O105        O  0.82975912  0.27080770  0.05518326    -0.78600
O106        O  0.79608727  0.11290632  0.48789988    -0.83800
C107        C  0.89858674  0.22990914  0.46291553     0.97300
C108        C  0.77329922  0.10424967  0.46252462     1.03200
O109        O  0.86443166  0.23275691  0.44832058    -0.79400
C110        C  0.86611893  0.26423961  0.06138135     1.01500
Fe111      Fe  0.76449267  0.53005675  0.02678796     1.65800
Fe112      Fe  0.82845498  0.65653508  0.01723255     1.73200
Fe113      Fe  0.78969667  0.57836170  0.45438847     1.54400
O114        O  0.81040051  0.52372391  0.45540213    -0.83100
O115        O  0.79266258  0.68119919  0.48827984    -0.81500
O116        O  0.79572336  0.49544680  0.00315816    -0.85700
O117        O  0.69952857  0.49514388  0.00218937    -0.80500
O118        O  0.86464075  0.63092316  0.44790377    -0.82300
O119        O  0.77110736  0.64033492  0.04831044    -0.85000
C120        C  0.68502418  0.49590010  0.47531816     0.95700
C121        C  0.81091965  0.49560880  0.47635124     1.03200
O122        O  0.79429306  0.58841767  0.99938678    -1.14000
O123        O  0.86970147  0.64014751  0.04810515    -0.76400
O124        O  0.82524321  0.55762287  0.05515268    -0.79900
O125        O  0.71414633  0.52435793  0.45468507    -0.80600
C126        C  0.86302824  0.60005026  0.06056747     0.94600
O127        O  0.72995235  0.55744727  0.05394626    -0.78600
O128        O  0.88901255  0.68198469  0.48806476    -0.83800
C129        C  0.77171248  0.66840072  0.46235512     0.97300
C130        C  0.89763827  0.66884783  0.46237733     1.03200
O131        O  0.76794231  0.63124819  0.44754657    -0.79400
C132        C  0.73609997  0.60027509  0.05987714     1.01500
Fe133      Fe  0.80559745  0.90148806  0.36069532     1.65800
Fe134      Fe  0.67940410  0.83931096  0.35061315     1.73200
Fe135      Fe  0.75842839  0.87867747  0.28824500     1.54400
O136        O  0.81007572  0.95473760  0.28932037    -0.83100
O137        O  0.65368492  0.78044690  0.32007400    -0.81500
O138        O  0.84389628  0.96527235  0.33546491    -0.85700
O139        O  0.83726842  0.86631229  0.33820652    -0.80500
O140        O  0.70348584  0.89758164  0.28096343    -0.82300
O141        O  0.69419502  0.79555453  0.38023423    -0.85000
C142        C  0.84024639  0.85575609  0.31070329     0.95700
C143        C  0.84122879  0.98181617  0.30957389     1.03200
O144        O  0.74766766  0.87321610  0.33309534    -1.14000
O145        O  0.69649622  0.89527360  0.38312637    -0.76400
O146        O  0.77989237  0.93914026  0.38629182    -0.79900
O147        O  0.81541113  0.86106270  0.28938184    -0.80600
C148        C  0.73695057  0.93171700  0.39347261     0.94600
O149        O  0.77560549  0.84235284  0.39013871    -0.78600
O150        O  0.65616663  0.87755178  0.32274985    -0.83800
C151        C  0.66854280  0.77108620  0.29520496     0.97300
C152        C  0.66773297  0.89619432  0.29620131     1.03200
O153        O  0.70810570  0.80327990  0.28163942    -0.79400
C154        C  0.73353880  0.80344358  0.39424179     1.01500
Fe155      Fe  0.10199786  0.90336826  0.36153464     1.65800
Fe156      Fe  0.16386276  0.83882820  0.35147652     1.73200
Fe157      Fe  0.12549329  0.87949441  0.28894490     1.54400
O158        O  0.05035748  0.85901788  0.28977805    -0.83100
O159        O  0.22446230  0.87404455  0.32229381    -0.81500
O160        O  0.03646954  0.87349419  0.33749614    -0.85700
O161        O  0.13299345  0.96901299  0.33772527    -0.80500
O162        O  0.10264881  0.80463562  0.28183132    -0.82300
O163        O  0.20560100  0.89555271  0.38283117    -0.85000
C164        C  0.14782779  0.98384340  0.31085336     0.95700
C165        C  0.02162189  0.85845638  0.31063130     1.03200
O166        O  0.13056708  0.87389758  0.33390564    -1.14000
O167        O  0.10607558  0.79770735  0.38244916    -0.76400
O168        O  0.06775959  0.84200324  0.38909837    -0.79900
O169        O  0.14705816  0.95504245  0.28995014    -0.80600
C170        C  0.07234758  0.80426883  0.39464173     0.94600
O171        O  0.16343385  0.93618084  0.38923087    -0.78600
O172        O  0.12769276  0.77891611  0.32217184    -0.83800
C173        C  0.23298359  0.89581927  0.29659254     0.97300
C174        C  0.10637508  0.77100836  0.29637952     1.03200
O175        O  0.20002518  0.90088508  0.28216317    -0.79400
C176        C  0.20013040  0.92991319  0.39502932     1.01500
Fe177      Fe  0.10105073  0.19893799  0.36185743     1.65800
Fe178      Fe  0.16402296  0.32530915  0.35119934     1.73200
Fe179      Fe  0.12420023  0.24550076  0.28912442     1.54400
O180        O  0.14414875  0.19033020  0.29041549    -0.83100
O181        O  0.12755197  0.34943305  0.32208273    -0.81500
O182        O  0.13288745  0.16442682  0.33862913    -0.85700
O183        O  0.03590789  0.16241097  0.33764091    -0.80500
O184        O  0.19901485  0.29729839  0.28208873    -0.82300
O185        O  0.10715001  0.30938923  0.38275024    -0.85000
C186        C  0.02045907  0.16295870  0.31101051     0.95700
C187        C  0.14632983  0.16335704  0.31152571     1.03200
O188        O  0.12975938  0.25670748  0.33398822    -1.14000
O189        O  0.20623234  0.31004941  0.38213778    -0.76400
O190        O  0.16179935  0.22776684  0.38992120    -0.79900
O191        O  0.04860560  0.19198831  0.29024334    -0.80600
C192        C  0.19955544  0.27024382  0.39503718     0.94600
O193        O  0.06635259  0.22649424  0.38872632    -0.78600
O194        O  0.22393057  0.34990906  0.32151984    -0.83800
C195        C  0.10699587  0.33639819  0.29602917     0.97300
C196        C  0.23218770  0.33577091  0.29604816     1.03200
O197        O  0.10330561  0.29889812  0.28166844    -0.79400
C198        C  0.07242069  0.26932870  0.39458102     1.01500
C199        C  0.18937335  0.07217712  0.32721834    -0.14800
C200        C  0.16389481  0.03654577  0.30435103     0.07300
C201        C  0.14353970  0.04919383  0.27955807    -0.14800
C202        C  0.14291273  0.09439992  0.27983498    -0.14800
C203        C  0.16258406  0.12685315  0.30492133     0.07300
C204        C  0.18866421  0.11695476  0.32752699    -0.14800
H205        H  0.20562684  0.06325930  0.34643663     0.11300
H206        H  0.12338091  0.02201047  0.26181885     0.11300
H207        H  0.12241043  0.10129076  0.26224701     0.11300
H208        H  0.20452116  0.14175494  0.34692864     0.11300
C209        C  0.90904740  0.04958504  0.27830611    -0.14800
C210        C  0.87729075  0.03484089  0.30380304     0.07300
C211        C  0.88788204  0.06880157  0.32774491    -0.14800
C212        C  0.93273717  0.11410138  0.32817254    -0.14800
C213        C  0.96773610  0.12617055  0.30465454     0.07300
C214        C  0.95436226  0.09538423  0.27872188    -0.14800
H215        H  0.90154885  0.02366197  0.25971376     0.11300
H216        H  0.86360670  0.05819365  0.34752053     0.11300
H217        H  0.94214709  0.13758000  0.34825406     0.11300
H218        H  0.98103744  0.10402012  0.26041281     0.11300
C219        C  0.88756304  0.81445718  0.32673212    -0.14800
C220        C  0.87699041  0.83983425  0.30398944     0.07300
C221        C  0.90945058  0.85981920  0.27891430    -0.14800
C222        C  0.95543441  0.86070282  0.27895910    -0.14800
C223        C  0.96878668  0.84161780  0.30407787     0.08200
C224        C  0.93320575  0.81549754  0.32682609    -0.14800
H225        H  0.86269617  0.79814451  0.34606648     0.11300
H226        H  0.90197407  0.87959318  0.26114044     0.11300
H227        H  0.98251259  0.88103958  0.26120427     0.11300
H228        H  0.94262696  0.79996633  0.34619947     0.11300
C229        C  0.71971446  0.68231872  0.42350325    -0.14800
C230        C  0.75335849  0.69984813  0.44823206     0.07300
C231        C  0.77326794  0.74973759  0.45775158    -0.14800
C232        C  0.76336301  0.78252686  0.44134757    -0.14800
C233        C  0.73253890  0.76595588  0.41544819     0.07300
C234        C  0.70899476  0.71513157  0.40736597    -0.14800
H235        H  0.70343127  0.64388685  0.41586736     0.11300
H236        H  0.79917403  0.76440624  0.47672407     0.11300
H237        H  0.78196542  0.82162911  0.44794874     0.11300
H238        H  0.68546986  0.70170920  0.38727806     0.11300
C239        C  0.96284891  0.68348059  0.42275895    -0.14800
C240        C  0.94750796  0.70052549  0.44810453     0.07300
C241        C  0.97841521  0.75005058  0.45811746    -0.14800
C242        C  0.02138516  0.78284241  0.44179365    -0.14800
C243        C  0.03509626  0.76661108  0.41552316     0.07300
C244        C  0.00660027  0.71621672  0.40673725    -0.14800
H245        H  0.94000045  0.64544933  0.41459572     0.11300
H246        H  0.96784241  0.76444819  0.47752238     0.11300
H247        H  0.04269567  0.82169210  0.44883882     0.11300
H248        H  0.01610601  0.70313377  0.38627245     0.11300
C249        C  0.96103422  0.27779729  0.42148795    -0.14800
C250        C  0.94829529  0.24877052  0.44826917     0.07300
C251        C  0.98174924  0.23402083  0.45947662    -0.14800
C252        C  0.02466669  0.24437626  0.44299566    -0.14800
C253        C  0.03572435  0.27076170  0.41539778     0.07300
C254        C  0.00466719  0.28902415  0.40529775    -0.14800
H255        H  0.93621815  0.28997953  0.41234525     0.11300
H256        H  0.97325065  0.21175648  0.48002159     0.11300
H257        H  0.04795011  0.22952922  0.45098149     0.11300
H258        H  0.01211558  0.30867877  0.38376909     0.11300
C259        C  0.77339319  0.02330413  0.45796952    -0.14800
C260        C  0.75562110  0.05482674  0.44771318     0.07300
C261        C  0.72488793  0.04067403  0.42158557    -0.14800
C262        C  0.71470350  0.99752669  0.40516594    -0.14800
C263        C  0.73567132  0.96838219  0.41438756     0.07300
C264        C  0.76403558  0.98093145  0.44126809    -0.14800
H265        H  0.79710294  0.03292518  0.47794225     0.11300
H266        H  0.71046076  0.06402351  0.41312350     0.11300
H267        H  0.69346312  0.98893212  0.38417064     0.11300
H268        H  0.78096193  0.95915634  0.44855998     0.11300
C269        C  0.85249728  0.40408240  0.49351829    -0.14800
C270        C  0.82729361  0.36830609  0.47070452     0.07300
C271        C  0.80795336  0.38099213  0.44540137    -0.14800
C272        C  0.80802117  0.42655245  0.44506718    -0.14800
C273        C  0.82745260  0.45928725  0.47003371     0.07300
C274        C  0.85267475  0.44927756  0.49314993    -0.14800
H275        H  0.86801127  0.39512989  0.51310367     0.11300
H276        H  0.78810140  0.35368463  0.42766815     0.11300
H277        H  0.78813362  0.43352209  0.42711344     0.11300
H278        H  0.86826795  0.47428134  0.51248748     0.11300
C279        C  0.25246524  0.23029863  0.45887021    -0.14800
C280        C  0.30185254  0.24807743  0.44886602     0.07300
C281        C  0.31959183  0.28073457  0.42365092    -0.14800
C282        C  0.28744107  0.29249445  0.40757870    -0.14800
C283        C  0.23702817  0.27115934  0.41625707     0.07300
C284        C  0.22030647  0.24132728  0.44255815    -0.14800
H285        H  0.23761318  0.20526518  0.47822081     0.11300
H286        H  0.35762382  0.29541118  0.41556202     0.11300
H287        H  0.30087703  0.31499361  0.38709572     0.11300
H288        H  0.18141576  0.22423016  0.44951413     0.11300
C289        C  0.31981535  0.04002486  0.42304754    -0.14800
C290        C  0.30279905  0.05314899  0.44937650     0.07300
C291        C  0.25429765  0.01994486  0.46020453    -0.14800
C292        C  0.22204071  0.97709471  0.44359685    -0.14800
C293        C  0.23795906  0.96593365  0.41625178     0.07300
C294        C  0.28768973  0.99649111  0.40672101    -0.14800
H295        H  0.35713876  0.06458493  0.41426899     0.11300
H296        H  0.24004416  0.02869852  0.48043737     0.11300
H297        H  0.18363591  0.95408680  0.45118585     0.11300
H298        H  0.30043264  0.98888600  0.38544144     0.11300
C299        C  0.57332565  0.38157788  0.44419221    -0.14800
C300        C  0.54116347  0.36926974  0.46940993     0.07300
C301        C  0.55141358  0.40563423  0.49177814    -0.14800
C302        C  0.59655310  0.45074192  0.49135689    -0.14800
C303        C  0.63213189  0.46011129  0.46859641     0.07300
C304        C  0.61892232  0.42708537  0.44379191    -0.14800
H305        H  0.56603707  0.35395331  0.42670549     0.11300
H306        H  0.52675747  0.39712712  0.51121879     0.11300
H307        H  0.60584079  0.47608175  0.51050554     0.11300
H308        H  0.64597048  0.43367955  0.42603948     0.11300
C309        C  0.55277443  0.15005238  0.99499647    -0.14800
C310        C  0.54267121  0.17496090  0.47174890     0.07300
C311        C  0.57509636  0.19379517  0.44662550    -0.14800
C312        C  0.62045132  0.19341937  0.44680525    -0.14800
C313        C  0.63328065  0.17422261  0.47211755     0.07300
C314        C  0.59771399  0.14962482  0.99516272    -0.14800
H315        H  0.52799113  0.13498651  0.01447426     0.11300
H316        H  0.56803055  0.21348135  0.42859747     0.11300
H317        H  0.64755150  0.21283854  0.42889917     0.11300
H318        H  0.60670387  0.13418619  0.01476488     0.11300
C319        C  0.91843995  0.56348459  0.12503639    -0.14800
C320        C  0.96777248  0.58143871  0.11473421     0.07300
C321        C  0.98423565  0.61233328  0.08870732    -0.14800
C322        C  0.95111215  0.62237257  0.07235119    -0.14800
C323        C  0.90090865  0.60104640  0.08149544     0.07300
C324        C  0.88523697  0.57269740  0.10838354    -0.14800
H325        H  0.90448236  0.53977713  0.14500413     0.11300
H326        H  0.02204645  0.62696392  0.08023414     0.11300
H327        H  0.96373180  0.64375785  0.05141807     0.11300
H328        H  0.84654872  0.55571615  0.11573209     0.11300
C329        C  0.92115751  0.35421802  0.12667082    -0.14800
C330        C  0.96893392  0.38843912  0.11524906     0.07300
C331        C  0.98523161  0.37640744  0.08819858    -0.14800
C332        C  0.95319611  0.33273596  0.07195535    -0.14800
C333        C  0.90420656  0.30084197  0.08227628     0.07300
C334        C  0.88890493  0.31121396  0.11012517    -0.14800
H335        H  0.90742947  0.36219195  0.14742161     0.11300
H336        H  0.02193826  0.40180656  0.07889436     0.11300
H337        H  0.96534677  0.32588200  0.05022683     0.11300
H338        H  0.85097182  0.28733486  0.11825490     0.11300
C339        C  0.04219953  0.66150817  0.24141644    -0.14800
C340        C  0.06525293  0.63370089  0.24942481     0.07300
C341        C  0.09634239  0.64779235  0.27520988    -0.14800
C342        C  0.10695686  0.69073160  0.29156089    -0.14800
C343        C  0.08747976  0.72116158  0.28214682     0.07300
C344        C  0.05360585  0.70528840  0.25752433    -0.14800
H345        H  0.01853131  0.65159169  0.22140170     0.11300
H346        H  0.11465088  0.62695615  0.28174392     0.11300
H347        H  0.13303125  0.70173973  0.31043434     0.11300
H348        H  0.03763928  0.72777353  0.24995678     0.11300
C349        C  0.09264778  0.44819427  0.27620501    -0.14800
C350        C  0.06722869  0.43341072  0.24827024     0.07300
C351        C  0.05004265  0.38459217  0.23765393    -0.14800
C352        C  0.06092481  0.35199127  0.25387155    -0.14800
C353        C  0.08866484  0.36757978  0.28117434     0.07300
C354        C  0.10269021  0.41540962  0.29270924    -0.14800
H355        H  0.10684546  0.48602670  0.28451559     0.11300
H356        H  0.03133780  0.37292166  0.21580159     0.11300
H357        H  0.04944859  0.31538842  0.24437786     0.11300
H358        H  0.12404236  0.42869048  0.31361817     0.11300
C359        C  0.38818207  0.01777663  0.09185898    -0.14800
C360        C  0.42366424  0.03573215  0.11564880     0.07300
C361        C  0.44577737  0.08635843  0.12408831    -0.14800
C362        C  0.43565222  0.11907715  0.10772356    -0.14800
C363        C  0.40241810  0.10184335  0.08292429     0.07300
C364        C  0.37726028  0.05057412  0.07578335    -0.14800
H365        H  0.37032455  0.97886079  0.08497265     0.11300
H366        H  0.47328134  0.10146757  0.14222743     0.11300
H367        H  0.45567983  0.15852898  0.11354119     0.11300
H368        H  0.35197970  0.03659844  0.05648697     0.11300
C369        C  0.64797792  0.08424543  0.12587870    -0.14800
C370        C  0.61685096  0.03465732  0.11615760     0.07300
C371        C  0.63183217  0.01688272  0.09100515    -0.14800
C372        C  0.67535939  0.04918417  0.07469087    -0.14800
C373        C  0.70385797  0.09978244  0.08303269     0.07300
C374        C  0.69071544  0.11657352  0.10929220    -0.14800
H375        H  0.63761344  0.09908908  0.14515375     0.11300
H376        H  0.60878052  0.97867460  0.08317126     0.11300
H377        H  0.68452413  0.03564951  0.05429031     0.11300
H378        H  0.71212265  0.15557068  0.11602752     0.11300
C379        C  0.35582734  0.90452890  0.27514390    -0.14800
C380        C  0.36978712  0.93530350  0.24923232     0.07300
C381        C  0.34186703  0.95812940  0.24105956    -0.14800
C382        C  0.29831340  0.94715263  0.25728072    -0.14800
C383        C  0.28268089  0.91390549  0.28220998     0.07300
C384        C  0.31306335  0.89436016  0.29165550    -0.14800
H385        H  0.37675362  0.88634159  0.28174027     0.11300
H386        H  0.35162584  0.98144007  0.22090032     0.11300
H387        H  0.27583653  0.96306733  0.24959261     0.11300
H388        H  0.30220073  0.86870557  0.31072475     0.11300
C389        C  0.55508722  0.90816963  0.27604162    -0.14800
C390        C  0.57122327  0.93686531  0.24930800     0.07300
C391        C  0.62128762  0.95751267  0.24006479    -0.14800
C392        C  0.65375844  0.94625288  0.25612252    -0.14800
C393        C  0.63670095  0.91492915  0.28191359     0.07300
C394        C  0.58767039  0.89781230  0.29241913    -0.14800
H395        H  0.51638745  0.89150766  0.28332283     0.11300
H396        H  0.63413212  0.97904954  0.21919650     0.11300
H397        H  0.69148082  0.96027487  0.24764523     0.11300
H398        H  0.57337944  0.87365844  0.31218814     0.11300
C399        C  0.26654469  0.78433064  0.16037829    -0.14800
C400        C  0.30214122  0.79364718  0.13764391     0.07300
C401        C  0.28894852  0.76060286  0.11285020    -0.14800
C402        C  0.24300131  0.71544823  0.11299999    -0.14800
C403        C  0.21036480  0.70340567  0.13795949     0.07300
C404        C  0.22101119  0.73961043  0.16052221    -0.14800
H405        H  0.27586496  0.80960029  0.17956725     0.11300
H406        H  0.31608009  0.76705408  0.09518003     0.11300
H407        H  0.23557185  0.68790920  0.09543121     0.11300
H408        H  0.19613471  0.73131683  0.17982477     0.11300
C409        C  0.64581777  0.56641436  0.12484449    -0.14800
C410        C  0.61305239  0.58213242  0.11377345     0.07300
C411        C  0.62600243  0.61103865  0.08693898    -0.14800
C412        C  0.66913384  0.62115151  0.07055682    -0.14800
C413        C  0.69942099  0.60191465  0.08055938     0.07300
C414        C  0.68817541  0.57563295  0.10817550    -0.14800
H415        H  0.63713757  0.54422583  0.14543178     0.11300
H416        H  0.60169104  0.62392968  0.07790281     0.11300
H417        H  0.67681361  0.64082702  0.04902234     0.11300
H418        H  0.71093464  0.56014761  0.11609474     0.11300
C419        C  0.37690753  0.33037264  0.07231526    -0.14800
C420        C  0.39773045  0.30116490  0.08172659     0.07300
C421        C  0.42653573  0.31421598  0.10844561    -0.14800
C422        C  0.43677885  0.35723458  0.12463978    -0.14800
C423        C  0.41933154  0.38884796  0.11409952     0.07300
C424        C  0.38794673  0.37418533  0.08826642    -0.14800
H425        H  0.35531067  0.32140052  0.05144715     0.11300
H426        H  0.44335024  0.29242062  0.11590891     0.11300
H427        H  0.46095162  0.36724221  0.14441743     0.11300
H428        H  0.37369736  0.39760870  0.07966457     0.11300
C429        C  0.55472823  0.64708614  0.27502993    -0.14800
C430        C  0.57017028  0.63440242  0.24806694     0.07300
C431        C  0.62022698  0.66336807  0.23866622    -0.14800
C432        C  0.65334945  0.70677772  0.25481242    -0.14800
C433        C  0.63693934  0.72132661  0.28081663     0.07300
C434        C  0.58787766  0.68973158  0.29143263    -0.14800
H435        H  0.51613414  0.62533108  0.28254174     0.11300
H436        H  0.63262896  0.65456853  0.21765797     0.11300
H437        H  0.69101291  0.73009218  0.24616026     0.11300
H438        H  0.57399167  0.69951664  0.31142093     0.11300
C439        C  0.33761839  0.38365558  0.23799266    -0.14800
C440        C  0.36830000  0.43303724  0.24805346     0.07300
C441        C  0.35743902  0.44806038  0.27581644    -0.14800
C442        C  0.31496216  0.41514768  0.29249051    -0.14800
C443        C  0.28176485  0.36687907  0.28132655     0.07300
C444        C  0.29443707  0.35087248  0.25439600    -0.14800
H445        H  0.34498825  0.37163498  0.21637221     0.11300
H446        H  0.38055753  0.48616742  0.28383366     0.11300
H447        H  0.30658985  0.42867416  0.31318046     0.11300
H448        H  0.26983786  0.31383974  0.24526240     0.11300
C449        C  0.47617791  0.71668744  0.11188590    -0.14800
C450        C  0.49530564  0.70344514  0.13703230     0.07300
C451        C  0.52179235  0.73916768  0.15965289    -0.14800
C452        C  0.52321100  0.78496317  0.15936322    -0.14800
C453        C  0.49793097  0.79547538  0.13653549     0.07300
C454        C  0.47747641  0.76279592  0.11164286    -0.14800
H455        H  0.45544489  0.68944385  0.09428419     0.11300
H456        H  0.53725130  0.72976727  0.17907422     0.11300
H457        H  0.53953197  0.80995587  0.17864355     0.11300
H458        H  0.45751598  0.77019865  0.09393961     0.11300
C459        C  0.28512107  0.52565739  0.11217395    -0.14800
C460        C  0.29883746  0.50826177  0.13796907     0.07300
C461        C  0.26377039  0.48426083  0.16132140    -0.14800
C462        C  0.21852983  0.48398522  0.16100972    -0.14800
C463        C  0.20776947  0.50774125  0.13736559     0.07300
C464        C  0.23947778  0.52543809  0.11188510    -0.14800
H465        H  0.31177124  0.54433728  0.09394278     0.11300
H466        H  0.27339404  0.46999944  0.18123309     0.11300
H467        H  0.19419799  0.46969330  0.18073271     0.11300
H468        H  0.23176663  0.54407033  0.09350144     0.11300
Fe469      Fe  0.43296464  0.57034547  0.69453733     1.65800
Fe470      Fe  0.49570425  0.50684953  0.68359257     1.73200
Fe471      Fe  0.45543698  0.54642701  0.62162699     1.54400
O472        O  0.38032139  0.52604135  0.62312911    -0.83100
O473        O  0.55600252  0.54317173  0.65446092    -0.81500
O474        O  0.36686975  0.53963725  0.67112454    -0.85700
O475        O  0.46292186  0.63585110  0.67050381    -0.80500
O476        O  0.43255790  0.47167532  0.61439055    -0.82300
O477        O  0.53712072  0.56347922  0.71507134    -0.85000
C478        C  0.47811519  0.65062966  0.64365713     0.95700
C479        C  0.35173253  0.52494363  0.64425881     1.03200
O480        O  0.46142436  0.54117874  0.66651482    -1.14000
O481        O  0.43831972  0.46496566  0.71445680    -0.76400
O482        O  0.40002967  0.50904583  0.72238001    -0.79900
O483        O  0.47729005  0.62180807  0.62279142    -0.80600
C484        C  0.40489772  0.47127677  0.72727314     0.94600
O485        O  0.49501910  0.60411023  0.72162010    -0.78600
O486        O  0.46013229  0.44704236  0.65400016    -0.83800
C487        C  0.56357725  0.56395878  0.62850610     0.97300
C488        C  0.43779154  0.43860743  0.62850633     1.03200
O489        O  0.52981371  0.56774295  0.61412294    -0.79400
C490        C  0.53188084  0.59802568  0.72719213     1.01500
Fe491      Fe  0.43566321  0.86524196  0.69458708     1.65800
Fe492      Fe  0.49815183  0.99175659  0.68510074     1.73200
Fe493      Fe  0.45881023  0.91351763  0.62228226     1.54400
O494        O  0.48145913  0.86048681  0.62279118    -0.83100
O495        O  0.46398020  0.01735693  0.65534525    -0.81500
O496        O  0.46559155  0.83033104  0.67008377    -0.85700
O497        O  0.36972467  0.83047280  0.67104190    -0.80500
O498        O  0.53315383  0.96718478  0.61545099    -0.82300
O499        O  0.43972025  0.97527559  0.71544226    -0.85000
C500        C  0.35495541  0.83008414  0.64409179     0.95700
C501        C  0.48148917  0.83161231  0.64334910     1.03200
O502        O  0.46425790  0.92362049  0.66724803    -1.14000
O503        O  0.53844728  0.97564544  0.71691023    -0.76400
O504        O  0.49745166  0.89263557  0.72169646    -0.79900
O505        O  0.38377720  0.85794750  0.62313707    -0.80600
C506        C  0.53351367  0.93549474  0.72823707     0.94600
O507        O  0.40278032  0.89288842  0.72286141    -0.78600
O508        O  0.55933015  0.01616603  0.65661114    -0.83800
C509        C  0.44133439  0.00370984  0.62993763     0.97300
C510        C  0.56701882  0.00373246  0.63043332     1.03200
O511        O  0.43527368  0.96513901  0.61575946    -0.79400
C512        C  0.40679676  0.93506189  0.72810839     1.01500
Fe513      Fe  0.13751889  0.57031193  0.69474716     1.65800
Fe514      Fe  0.01107224  0.50646979  0.68467073     1.73200
Fe515      Fe  0.08998688  0.54668547  0.62231847     1.54400
O516        O  0.14711095  0.62121987  0.62346947    -0.83100
O517        O  0.98776734  0.44484663  0.65659427    -0.81500
O518        O  0.17044985  0.63707305  0.67209138    -0.85700
O519        O  0.17469272  0.54343678  0.66965557    -0.80500
O520        O  0.03957335  0.57170956  0.61591167    -0.82300
O521        O  0.02815659  0.46745311  0.71706320    -0.85000
C522        C  0.17204143  0.52493769  0.64353089     0.95700
C523        C  0.17301978  0.65091907  0.64469241     1.03200
O524        O  0.07940221  0.54104327  0.66717421    -1.14000
O525        O  0.02626462  0.56515303  0.71449913    -0.76400
O526        O  0.10802503  0.60040668  0.72379621    -0.79900
O527        O  0.14152762  0.52219161  0.62320734    -0.80600
C528        C  0.06588868  0.59702311  0.72817565     0.94600
O529        O  0.11145483  0.50741103  0.72078119    -0.78600
O530        O  0.98494064  0.53950344  0.65419812    -0.83800
C531        C  0.99941387  0.43816878  0.62993281     0.97300
C532        C  0.99972778  0.56382219  0.62935014     1.03200
O533        O  0.03505048  0.47293939  0.61485584    -0.79400
C534        C  0.06854698  0.47169179  0.72768290     1.01500
Fe535      Fe  0.47094270  0.23762758  0.52800331     1.65800
Fe536      Fe  0.34429180  0.17204793  0.51830493     1.73200
Fe537      Fe  0.42308701  0.21151759  0.95568185     1.54400
O538        O  0.47789408  0.28671608  0.95590568    -0.83100
O539        O  0.32020222  0.11095484  0.98967952    -0.81500
O540        O  0.50463185  0.30306474  0.50388394    -0.85700
O541        O  0.50734525  0.20838983  0.50423094    -0.80500
O542        O  0.37089930  0.23410320  0.94883189    -0.82300
O543        O  0.36151271  0.13206856  0.54990276    -0.85000
C544        C  0.50626143  0.19142284  0.97782064     0.95700
C545        C  0.50508791  0.31665431  0.97662792     1.03200
O546        O  0.41264327  0.20695696  0.50059699    -1.14000
O547        O  0.35930905  0.22983156  0.54890230    -0.76400
O548        O  0.44204183  0.27022932  0.55548418    -0.79900
O549        O  0.47691964  0.18987101  0.95702269    -0.80600
C550        C  0.39918821  0.26440507  0.56096938     0.94600
O551        O  0.44438851  0.17647091  0.55566485    -0.78600
O552        O  0.31883111  0.20653862  0.98858669    -0.83800
C553        C  0.33323674  0.10311758  0.96373574     0.97300
C554        C  0.33273161  0.22898917  0.96310640     1.03200
O555        O  0.37015168  0.13697244  0.94902519    -0.79400
C556        C  0.40217160  0.13888335  0.56174190     1.01500
Fe557      Fe  0.76732586  0.23571783  0.52853504     1.65800
Fe558      Fe  0.83059113  0.17259496  0.51788746     1.73200
Fe559      Fe  0.79003546  0.21179049  0.95578716     1.54400
O560        O  0.71488515  0.19190215  0.95728953    -0.83100
O561        O  0.89131451  0.20975032  0.98906752    -0.81500
O562        O  0.70082898  0.20364854  0.50553937    -0.85700
O563        O  0.79559450  0.30065901  0.50408673    -0.80500
O564        O  0.76702331  0.13694923  0.94874478    -0.82300
O565        O  0.87107108  0.22910788  0.54981788    -0.85000
C566        C  0.81132704  0.31571070  0.97736452     0.95700
C567        C  0.68600783  0.19002852  0.97850442     1.03200
O568        O  0.79608188  0.20668554  0.50065983    -1.14000
O569        O  0.77284279  0.13002958  0.54847693    -0.76400
O570        O  0.73586886  0.17519444  0.55684658    -0.79900
O571        O  0.81202635  0.28730236  0.95672175    -0.80600
C572        C  0.74019899  0.13712120  0.56169555     0.94600
O573        O  0.82975903  0.27080763  0.55518332    -0.78600
O574        O  0.79608731  0.11290630  0.98789994    -0.83800
C575        C  0.89858676  0.22990917  0.96291553     0.97300
C576        C  0.77329925  0.10424966  0.96252468     1.03200
O577        O  0.86443164  0.23275683  0.94832053    -0.79400
C578        C  0.86611888  0.26423955  0.56138135     1.01500
Fe579      Fe  0.76449270  0.53005687  0.52678794     1.65800
Fe580      Fe  0.82845496  0.65653510  0.51723253     1.73200
Fe581      Fe  0.78969666  0.57836160  0.95438851     1.54400
O582        O  0.81040056  0.52372386  0.95540214    -0.83100
O583        O  0.79266256  0.68119916  0.98827988    -0.81500
O584        O  0.79572336  0.49544699  0.50315817    -0.85700
O585        O  0.69952865  0.49514404  0.50218937    -0.80500
O586        O  0.86464076  0.63092301  0.94790385    -0.82300
O587        O  0.77110726  0.64033488  0.54831040    -0.85000
C588        C  0.68502411  0.49590002  0.97531816     0.95700
C589        C  0.81091977  0.49560876  0.97635124     1.03200
O590        O  0.79429302  0.58841777  0.49938675    -1.14000
O591        O  0.86970132  0.64014745  0.54810517    -0.76400
O592        O  0.82524318  0.55762282  0.55515263    -0.79900
O593        O  0.71414625  0.52435790  0.95468510    -0.80600
C594        C  0.86302816  0.60005021  0.56056746     0.94600
O595        O  0.72995231  0.55744725  0.55394624    -0.78600
O596        O  0.88901248  0.68198473  0.98806476    -0.83800
C597        C  0.77171252  0.66840069  0.96235514     0.97300
C598        C  0.89763823  0.66884778  0.96237738     1.03200
O599        O  0.76794237  0.63124814  0.94754661    -0.79400
C600        C  0.73609991  0.60027504  0.55987712     1.01500
Fe601      Fe  0.80559735  0.90148801  0.86069531     1.65800
Fe602      Fe  0.67940404  0.83931090  0.85061320     1.73200
Fe603      Fe  0.75842831  0.87867744  0.78824502     1.54400
O604        O  0.81007570  0.95473754  0.78932038    -0.83100
O605        O  0.65368478  0.78044685  0.82007405    -0.81500
O606        O  0.84389619  0.96527236  0.83546495    -0.85700
O607        O  0.83726831  0.86631220  0.83820646    -0.80500
O608        O  0.70348573  0.89758160  0.78096352    -0.82300
O609        O  0.69419499  0.79555441  0.88023421    -0.85000
C610        C  0.84024631  0.85575605  0.81070321     0.95700
C611        C  0.84122872  0.98181615  0.80957392     1.03200
O612        O  0.74766757  0.87321606  0.83309534    -1.14000
O613        O  0.69649617  0.89527352  0.88312646    -0.76400
O614        O  0.77989231  0.93914021  0.88629184    -0.79900
O615        O  0.81541100  0.86106261  0.78938179    -0.80600
C616        C  0.73695051  0.93171691  0.89347269     0.94600
O617        O  0.77560542  0.84235282  0.89013872    -0.78600
O618        O  0.65616657  0.87755174  0.82274996    -0.83800
C619        C  0.66854270  0.77108620  0.79520499     0.97300
C620        C  0.66773286  0.89619426  0.79620140     1.03200
O621        O  0.70810559  0.80327993  0.78163947    -0.79400
C622        C  0.73353876  0.80344354  0.89424181     1.01500
Fe623      Fe  0.10199777  0.90336819  0.86153461     1.65800
Fe624      Fe  0.16386269  0.83882812  0.85147648     1.73200
Fe625      Fe  0.12549319  0.87949429  0.78894487     1.54400
O626        O  0.05035733  0.85901756  0.78977805    -0.83100
O627        O  0.22446218  0.87404449  0.82229378    -0.81500
O628        O  0.03646945  0.87349412  0.83749609    -0.85700
O629        O  0.13299335  0.96901292  0.83772523    -0.80500
O630        O  0.10264892  0.80463558  0.78183130    -0.82300
O631        O  0.20560088  0.89555261  0.88283113    -0.85000
C632        C  0.14782769  0.98384332  0.81085333     0.95700
C633        C  0.02162178  0.85845620  0.81063127     1.03200
O634        O  0.13056702  0.87389754  0.83390561    -1.14000
O635        O  0.10607549  0.79770723  0.88244909    -0.76400
O636        O  0.06775955  0.84200317  0.88909837    -0.79900
O637        O  0.14705801  0.95504235  0.78995009    -0.80600
C638        C  0.07234753  0.80426873  0.89464171     0.94600
O639        O  0.16343374  0.93618077  0.88923082    -0.78600
O640        O  0.12769284  0.77891605  0.82217181    -0.83800
C641        C  0.23298347  0.89581921  0.79659251     0.97300
C642        C  0.10637523  0.77100834  0.79637948     1.03200
O643        O  0.20002506  0.90088504  0.78216314    -0.79400
C644        C  0.20013028  0.92991311  0.89502927     1.01500
Fe645      Fe  0.10105079  0.19893796  0.86185747     1.65800
Fe646      Fe  0.16402292  0.32530913  0.85119938     1.73200
Fe647      Fe  0.12420026  0.24550081  0.78912447     1.54400
O648        O  0.14414881  0.19033025  0.79041553    -0.83100
O649        O  0.12755186  0.34943296  0.82208277    -0.81500
O650        O  0.13288754  0.16442680  0.83862917    -0.85700
O651        O  0.03590793  0.16241091  0.83764093    -0.80500
O652        O  0.19901486  0.29729841  0.78208873    -0.82300
O653        O  0.10714992  0.30938913  0.88275027    -0.85000
C654        C  0.02045908  0.16295871  0.81101055     0.95700
C655        C  0.14632989  0.16335705  0.81152574     1.03200
O656        O  0.12975948  0.25670750  0.83398829    -1.14000
O657        O  0.20623234  0.31004943  0.88213782    -0.76400
O658        O  0.16179937  0.22776684  0.88992120    -0.79900
O659        O  0.04860559  0.19198846  0.79024342    -0.80600
C660        C  0.19955544  0.27024381  0.89503719     0.94600
O661        O  0.06635274  0.22649418  0.88872649    -0.78600
O662        O  0.22393055  0.34990902  0.82151987    -0.83800
C663        C  0.10699583  0.33639817  0.79602919     0.97300
C664        C  0.23218772  0.33577089  0.79604820     1.03200
O665        O  0.10330568  0.29889817  0.78166843    -0.79400
C666        C  0.07242073  0.26932862  0.89458114     1.01500
C667        C  0.18937321  0.07217701  0.82721833    -0.14800
C668        C  0.16389470  0.03654569  0.80435100     0.07300
C669        C  0.14353950  0.04919374  0.77955808    -0.14800
C670        C  0.14291249  0.09439981  0.77983503    -0.14800
C671        C  0.16258400  0.12685308  0.80492135     0.07300
C672        C  0.18866411  0.11695465  0.82752699    -0.14800
H673        H  0.20562669  0.06325921  0.84643662     0.11300
H674        H  0.12338067  0.02201037  0.76181887     0.11300
H675        H  0.12241012  0.10129064  0.76224712     0.11300
H676        H  0.20452111  0.14175483  0.84692866     0.11300
C677        C  0.90904743  0.04958494  0.77830616    -0.14800
C678        C  0.87729067  0.03484088  0.80380305     0.07300
C679        C  0.88788193  0.06880162  0.82774488    -0.14800
C680        C  0.93273713  0.11410139  0.82817253    -0.14800
C681        C  0.96773610  0.12617052  0.80465456     0.07300
C682        C  0.95436228  0.09538418  0.77872191    -0.14800
H683        H  0.90154900  0.02366181  0.75971390     0.11300
H684        H  0.86360654  0.05819375  0.84752048     0.11300
H685        H  0.94214707  0.13758006  0.84825403     0.11300
H686        H  0.98103746  0.10402006  0.76041284     0.11300
C687        C  0.88756295  0.81445712  0.82673198    -0.14800
C688        C  0.87699041  0.83983430  0.80398933     0.07300
C689        C  0.90945074  0.85981939  0.77891425    -0.14800
C690        C  0.95543449  0.86070284  0.77895905    -0.14800
C691        C  0.96878662  0.84161770  0.80407781     0.08200
C692        C  0.93320561  0.81549740  0.82682599    -0.14800
H693        H  0.86269603  0.79814445  0.84606632     0.11300
H694        H  0.90197442  0.87959356  0.76114042     0.11300
H695        H  0.98251276  0.88103957  0.76120423     0.11300
H696        H  0.94262671  0.79996609  0.84619936     0.11300
C697        C  0.71971448  0.68231869  0.92350323    -0.14800
C698        C  0.75335853  0.69984810  0.94823204     0.07300
C699        C  0.77326789  0.74973753  0.95775159    -0.14800
C700        C  0.76336292  0.78252682  0.94134761    -0.14800
C701        C  0.73253884  0.76595585  0.91544823     0.07300
C702        C  0.70899480  0.71513158  0.90736595    -0.14800
H703        H  0.70343129  0.64388683  0.91586733     0.11300
H704        H  0.79917396  0.76440616  0.97672409     0.11300
H705        H  0.78196535  0.82162906  0.94794878     0.11300
H706        H  0.68547004  0.70170929  0.88727798     0.11300
C707        C  0.96284902  0.68348045  0.92275912    -0.14800
C708        C  0.94750796  0.70052546  0.94810459     0.07300
C709        C  0.97841517  0.75005061  0.95811746    -0.14800
C710        C  0.02138516  0.78284237  0.94179365    -0.14800
C711        C  0.03509628  0.76661099  0.91552321     0.07300
C712        C  0.00660037  0.71621656  0.90673740    -0.14800
H713        H  0.94000062  0.64544918  0.91459597     0.11300
H714        H  0.96784230  0.76444832  0.97752228     0.11300
H715        H  0.04269565  0.82169211  0.94883878     0.11300
H716        H  0.01610612  0.70313352  0.88627265     0.11300
C717        C  0.96103421  0.27779720  0.92148797    -0.14800
C718        C  0.94829532  0.24877058  0.94826923     0.07300
C719        C  0.98174931  0.23402099  0.95947678    -0.14800
C720        C  0.02466672  0.24437634  0.94299583    -0.14800
C721        C  0.03572437  0.27076161  0.91539789     0.07300
C722        C  0.00466718  0.28902401  0.90529780    -0.14800
H723        H  0.93621808  0.28997935  0.91234523     0.11300
H724        H  0.97325070  0.21175673  0.98002179     0.11300
H725        H  0.04795016  0.22952927  0.95098172     0.11300
H726        H  0.01211556  0.30867855  0.88376911     0.11300
C727        C  0.77339322  0.02330415  0.95796960    -0.14800
C728        C  0.75562109  0.05482671  0.94771324     0.07300
C729        C  0.72488792  0.04067400  0.92158563    -0.14800
C730        C  0.71470345  0.99752659  0.90516603    -0.14800
C731        C  0.73567133  0.96838212  0.91438767     0.07300
C732        C  0.76403576  0.98093154  0.94126812    -0.14800
H733        H  0.79710287  0.03292518  0.97794233     0.11300
H734        H  0.71046077  0.06402344  0.91312355     0.11300
H735        H  0.69346310  0.98893199  0.88417077     0.11300
H736        H  0.78096232  0.95915657  0.94855999     0.11300
C737        C  0.85249719  0.40408232  0.99351836    -0.14800
C738        C  0.82729355  0.36830606  0.97070455     0.07300
C739        C  0.80795349  0.38099219  0.94540136    -0.14800
C740        C  0.80802149  0.42655258  0.94506712    -0.14800
C741        C  0.82745290  0.45928736  0.97003366     0.07300
C742        C  0.85267492  0.44927760  0.99314992    -0.14800
H743        H  0.86801106  0.39512976  0.01310376     0.11300
H744        H  0.78810157  0.35368474  0.92766809     0.11300
H745        H  0.78813402  0.43352228  0.92711336     0.11300
H746        H  0.86826810  0.47428136  0.01248747     0.11300
C747        C  0.25246523  0.23029863  0.95887024    -0.14800
C748        C  0.30185253  0.24807737  0.94886604     0.07300
C749        C  0.31959178  0.28073443  0.92365090    -0.14800
C750        C  0.28744103  0.29249431  0.90757867    -0.14800
C751        C  0.23702815  0.27115929  0.91625706     0.07300
C752        C  0.22030647  0.24132723  0.94255816    -0.14800
H753        H  0.23761317  0.20526520  0.97822088     0.11300
H754        H  0.35762375  0.29541091  0.91556197     0.11300
H755        H  0.30087697  0.31499340  0.88709563     0.11300
H756        H  0.18141571  0.22423008  0.94951413     0.11300
C757        C  0.31981526  0.04002468  0.92304757    -0.14800
C758        C  0.30279892  0.05314883  0.94937652     0.07300
C759        C  0.25429745  0.01994478  0.96020448    -0.14800
C760        C  0.22204049  0.97709468  0.94359675    -0.14800
C761        C  0.23795892  0.96593358  0.91625172     0.07300
C762        C  0.28768961  0.99649096  0.90672100    -0.14800
H763        H  0.35713868  0.06458465  0.91426910     0.11300
H764        H  0.24004388  0.02869842  0.98043728     0.11300
H765        H  0.18363567  0.95408686  0.95118570     0.11300
H766        H  0.30043259  0.98888582  0.88544146     0.11300
C767        C  0.57332576  0.38157777  0.94419220    -0.14800
C768        C  0.54116356  0.36926965  0.96940990     0.07300
C769        C  0.55141364  0.40563414  0.99177811    -0.14800
C770        C  0.59655307  0.45074187  0.99135682    -0.14800
C771        C  0.63213187  0.46011122  0.96859637     0.07300
C772        C  0.61892242  0.42708526  0.94379189    -0.14800
H773        H  0.56603720  0.35395321  0.92670547     0.11300
H774        H  0.52675755  0.39712702  0.01121875     0.11300
H775        H  0.60584071  0.47608178  0.01050543     0.11300
H776        H  0.64597063  0.43367947  0.92603950     0.11300
C777        C  0.55277452  0.15005259  0.49499651    -0.14800
C778        C  0.54267108  0.17496062  0.97174885     0.07300
C779        C  0.57509634  0.19379503  0.94662549    -0.14800
C780        C  0.62045132  0.19341929  0.94680527    -0.14800
C781        C  0.63328067  0.17422257  0.97211757     0.07300
C782        C  0.59771399  0.14962490  0.49516270    -0.14800
H783        H  0.52799126  0.13498675  0.51447429     0.11300
H784        H  0.56803061  0.21348129  0.92859747     0.11300
H785        H  0.64755154  0.21283848  0.92889919     0.11300
H786        H  0.60670389  0.13418627  0.51476489     0.11300
C787        C  0.91843991  0.56348450  0.62503635    -0.14800
C788        C  0.96777243  0.58143865  0.61473416     0.07300
C789        C  0.98423558  0.61233324  0.58870726    -0.14800
C790        C  0.95111205  0.62237251  0.57235117    -0.14800
C791        C  0.90090857  0.60104636  0.58149545     0.07300
C792        C  0.88523693  0.57269732  0.60838353    -0.14800
H793        H  0.90448234  0.53977702  0.64500409     0.11300
H794        H  0.02204632  0.62696387  0.58023407     0.11300
H795        H  0.96373166  0.64375779  0.55141804     0.11300
H796        H  0.84654866  0.55571602  0.61573211     0.11300
C797        C  0.92115757  0.35421804  0.62667073    -0.14800
C798        C  0.96893400  0.38843909  0.61524900     0.07300
C799        C  0.98523170  0.37640732  0.58819853    -0.14800
C800        C  0.95319616  0.33273584  0.57195531    -0.14800
C801        C  0.90420659  0.30084191  0.58227625     0.07300
C802        C  0.88890499  0.31121392  0.61012514    -0.14800
H803        H  0.90742953  0.36219205  0.64742151     0.11300
H804        H  0.02193837  0.40180636  0.57889433     0.11300
H805        H  0.96534680  0.32588179  0.55022680     0.11300
H806        H  0.85097188  0.28733479  0.61825488     0.11300
C807        C  0.04219952  0.66150822  0.74141642    -0.14800
C808        C  0.06525279  0.63370081  0.74942483     0.07300
C809        C  0.09634216  0.64779217  0.77520992    -0.14800
C810        C  0.10695674  0.69073146  0.79156094    -0.14800
C811        C  0.08747987  0.72116159  0.78214677     0.07300
C812        C  0.05360603  0.70528852  0.75752426    -0.14800
H813        H  0.01853133  0.65159181  0.72140169     0.11300
H814        H  0.11465054  0.62695586  0.78174400     0.11300
H815        H  0.13303101  0.70173949  0.81043441     0.11300
H816        H  0.03763961  0.72777379  0.74995665     0.11300
C817        C  0.09264764  0.44819422  0.77620500    -0.14800
C818        C  0.06722865  0.43341070  0.74827019     0.07300
C819        C  0.05004280  0.38459221  0.73765385    -0.14800
C820        C  0.06092492  0.35199129  0.75387148    -0.14800
C821        C  0.08866478  0.36757974  0.78117434     0.07300
C822        C  0.10269006  0.41540955  0.79270924    -0.14800
H823        H  0.10684526  0.48602662  0.78451559     0.11300
H824        H  0.03133812  0.37292177  0.71580143     0.11300
H825        H  0.04944887  0.31538853  0.74437773     0.11300
H826        H  0.12404216  0.42869041  0.81361819     0.11300
C827        C  0.38818205  0.01777660  0.59185887    -0.14800
C828        C  0.42366417  0.03573209  0.61564870     0.07300
C829        C  0.44577726  0.08635835  0.62408826    -0.14800
C830        C  0.43565212  0.11907708  0.60772352    -0.14800
C831        C  0.40241816  0.10184333  0.58292419     0.07300
C832        C  0.37726026  0.05057410  0.57578323    -0.14800
H833        H  0.37032455  0.97886075  0.58497249     0.11300
H834        H  0.47328112  0.10146742  0.64222739     0.11300
H835        H  0.45567967  0.15852890  0.61354120     0.11300
H836        H  0.35197967  0.03659847  0.55648689     0.11300
C837        C  0.64797785  0.08424541  0.62587874    -0.14800
C838        C  0.61685092  0.03465731  0.61615767     0.07300
C839        C  0.63183208  0.01688268  0.59100521    -0.14800
C840        C  0.67535923  0.04918413  0.57469088    -0.14800
C841        C  0.70385785  0.09978242  0.58303270     0.07300
C842        C  0.69071532  0.11657350  0.60929223    -0.14800
H843        H  0.63761340  0.09908906  0.64515385     0.11300
H844        H  0.60878048  0.97867452  0.58317138     0.11300
H845        H  0.68452393  0.03564943  0.55429032     0.11300
H846        H  0.71212253  0.15557063  0.61602757     0.11300
C847        C  0.35582749  0.90452928  0.77514397    -0.14800
C848        C  0.36978722  0.93530382  0.74923237     0.07300
C849        C  0.34186697  0.95812955  0.74105957    -0.14800
C850        C  0.29831325  0.94715261  0.75728068    -0.14800
C851        C  0.28268080  0.91390550  0.78220996     0.07300
C852        C  0.31306348  0.89436045  0.79165557    -0.14800
H853        H  0.37675389  0.88634212  0.78174039     0.11300
H854        H  0.35162575  0.98144023  0.72090031     0.11300
H855        H  0.27583626  0.96306715  0.74959253     0.11300
H856        H  0.30220104  0.86870604  0.81072490     0.11300
C857        C  0.55508700  0.90816930  0.77604156    -0.14800
C858        C  0.57122311  0.93686506  0.74930798     0.07300
C859        C  0.62128750  0.95751259  0.74006485    -0.14800
C860        C  0.65375837  0.94625287  0.75612261    -0.14800
C861        C  0.63670080  0.91492906  0.78191366     0.07300
C862        C  0.58767018  0.89781207  0.79241913    -0.14800
H863        H  0.51638715  0.89150716  0.78332268     0.11300
H864        H  0.63413203  0.97904953  0.71919660     0.11300
H865        H  0.69148071  0.96027499  0.74764538     0.11300
H866        H  0.57337920  0.87365819  0.81218811     0.11300
C867        C  0.26654461  0.78433067  0.66037836    -0.14800
C868        C  0.30214118  0.79364722  0.63764400     0.07300
C869        C  0.28894846  0.76060299  0.61285024    -0.14800
C870        C  0.24300122  0.71544837  0.61300002    -0.14800
C871        C  0.21036471  0.70340573  0.63795951     0.07300
C872        C  0.22101107  0.73961043  0.66052226    -0.14800
H873        H  0.27586481  0.80960030  0.67956734     0.11300
H874        H  0.31607998  0.76705425  0.59518007     0.11300
H875        H  0.23557178  0.68790945  0.59543118     0.11300
H876        H  0.19613457  0.73131678  0.67982478     0.11300
C877        C  0.64581791  0.56641452  0.62484453    -0.14800
C878        C  0.61305252  0.58213257  0.61377349     0.07300
C879        C  0.62600239  0.61103855  0.58693893    -0.14800
C880        C  0.66913370  0.62115127  0.57055671    -0.14800
C881        C  0.69942093  0.60191456  0.58055934     0.07300
C882        C  0.68817545  0.57563296  0.60817549    -0.14800
H883        H  0.63713778  0.54422609  0.64543184     0.11300
H884        H  0.60169094  0.62392949  0.57790269     0.11300
H885        H  0.67681333  0.64082658  0.54902217     0.11300
H886        H  0.71093466  0.56014762  0.61609474     0.11300
C887        C  0.37690736  0.33037256  0.57231530    -0.14800
C888        C  0.39773025  0.30116480  0.58172665     0.07300
C889        C  0.42653557  0.31421592  0.60844565    -0.14800
C890        C  0.43677871  0.35723451  0.62463979    -0.14800
C891        C  0.41933141  0.38884790  0.61409952     0.07300
C892        C  0.38794659  0.37418526  0.58826641    -0.14800
H893        H  0.35531048  0.32140040  0.55144716     0.11300
H894        H  0.44335013  0.29242060  0.61590894     0.11300
H895        H  0.46095151  0.36724216  0.64441743     0.11300
H896        H  0.37369721  0.39760867  0.57966454     0.11300
C897        C  0.55472829  0.64708604  0.77502998    -0.14800
C898        C  0.57017034  0.63440240  0.74806694     0.07300
C899        C  0.62022706  0.66336802  0.73866627    -0.14800
C900        C  0.65334954  0.70677765  0.75481249    -0.14800
C901        C  0.63693934  0.72132658  0.78081667     0.07300
C902        C  0.58787773  0.68973145  0.79143268    -0.14800
H903        H  0.51613425  0.62533095  0.78254178     0.11300
H904        H  0.63262907  0.65456847  0.71765801     0.11300
H905        H  0.69101302  0.73009206  0.74616039     0.11300
H906        H  0.57399171  0.69951641  0.81142105     0.11300
C907        C  0.33761839  0.38365555  0.73799271    -0.14800
C908        C  0.36829998  0.43303722  0.74805347     0.07300
C909        C  0.35743907  0.44806035  0.77581648    -0.14800
C910        C  0.31496226  0.41514762  0.79249060    -0.14800
C911        C  0.28176493  0.36687900  0.78132663     0.07300
C912        C  0.29443713  0.35087244  0.75439606    -0.14800
H913        H  0.34498824  0.37163491  0.71637225     0.11300
H914        H  0.38055763  0.48616740  0.78383368     0.11300
H915        H  0.30658996  0.42867412  0.81318054     0.11300
H916        H  0.26983793  0.31383971  0.74526242     0.11300
C917        C  0.47617819  0.71668751  0.61188592    -0.14800
C918        C  0.49530575  0.70344518  0.63703237     0.07300
C919        C  0.52179220  0.73916764  0.65965307    -0.14800
C920        C  0.52321079  0.78496311  0.65936334    -0.14800
C921        C  0.49793087  0.79547531  0.63653554     0.07300
C922        C  0.47747654  0.76279592  0.61164286    -0.14800
H923        H  0.45544534  0.68944395  0.59428418     0.11300
H924        H  0.53725103  0.72976721  0.67907443     0.11300
H925        H  0.53953167  0.80995584  0.67864371     0.11300
H926        H  0.45751615  0.77019861  0.59393961     0.11300
C927        C  0.28512115  0.52565737  0.61217394    -0.14800
C928        C  0.29883746  0.50826176  0.63796910     0.07300
C929        C  0.26377031  0.48426084  0.66132140    -0.14800
C930        C  0.21852983  0.48398538  0.66100968    -0.14800
C931        C  0.20776960  0.50774147  0.63736554     0.07300
C932        C  0.23947797  0.52543829  0.61188507    -0.14800
H933        H  0.31177133  0.54433713  0.59394276     0.11300
H934        H  0.27339382  0.46999937  0.68123308     0.11300
H935        H  0.19419793  0.46969350  0.68073264     0.11300
H936        H  0.23176690  0.54407059  0.59350139     0.11300
loop_ 
_geom_bond_atom_site_label_1 
_geom_bond_atom_site_label_2 
_geom_bond_distance 
_geom_bond_site_symmetry_2 
_ccdc_geom_bond_type 
Fe1          O17   2.039       .  S
Fe1           O7   2.044       .  S
Fe1          O14   2.043       .  S
Fe1           O6   2.041       .  S
Fe1          O12   1.969       .  S
Fe2           O5   2.064       .  S
Fe2           O9   2.087       .  S
Fe2          O13   2.084       .  S
Fe2          O18   2.065       .  S
Fe2          O12   1.977       .  S
Fe3          O21   2.069       .  S
Fe3           O8   2.069       .  S
Fe3          O15   2.071       .  S
Fe3           O4   2.072       .  S
Fe3          O12   1.993       .  S
O4           C11   1.268       .  A
O5           C19   1.270       .  A
O6           C11   1.266       .  A
O7           C10   1.266       .  A
O8           C20   1.270       .  A
O9           C22   1.270       .  A
C10          O15   1.267       .  A
C10         C450   1.467       .  S
C11         C460   1.468       .  S
O13          C16   1.270       .  A
O14          C16   1.264       .  A
C16         C440   1.471       .  S
O17          C22   1.263       .  A
O18          C20   1.270       .  A
C19          O21   1.270       .  A
C19         C410   1.483       .  S
C20         C423   1.484       .  S
C22         C430   1.471       .  S
Fe23         O39   2.038       .  S
Fe23         O29   2.040       .  S
Fe23         O36   2.035       .  S
Fe23         O28   2.038       .  S
Fe23         O34   1.967       .  S
Fe24         O27   2.065   1_565  S
Fe24         O31   2.087       .  S
Fe24         O35   2.086       .  S
Fe24         O40   2.065   1_565  S
Fe24         O34   1.980       .  S
Fe25         O43   2.071       .  S
Fe25         O30   2.069       .  S
Fe25         O37   2.077       .  S
Fe25         O26   2.073       .  S
Fe25         O34   1.992       .  S
O26          C33   1.268       .  A
O27          C41   1.270       .  A
O28          C33   1.265       .  A
O29          C32   1.265       .  A
O30          C42   1.270   1_565  A
O31          C44   1.271       .  A
C32          O37   1.269       .  A
C32         C400   1.469       .  S
C33         C453   1.466       .  S
O35          C38   1.270       .  A
O36          C38   1.262       .  A
C38         C390   1.468       .  S
O39          C44   1.263       .  A
O40          C42   1.271       .  A
C41          O43   1.270   1_545  A
C41         C360   1.483       .  S
C42         C370   1.481       .  S
C44         C380   1.472       .  S
Fe45         O61   2.037       .  S
Fe45         O51   2.039       .  S
Fe45         O58   2.038       .  S
Fe45         O50   2.040       .  S
Fe45         O56   1.966       .  S
Fe46         O49   2.068   1_455  S
Fe46         O53   2.092       .  S
Fe46         O57   2.088       .  S
Fe46         O62   2.071   1_455  S
Fe46         O56   1.977       .  S
Fe47         O65   2.071       .  S
Fe47         O52   2.069       .  S
Fe47         O59   2.070       .  S
Fe47         O48   2.081       .  S
Fe47         O56   1.989       .  S
O48          C55   1.270       .  A
O49          C63   1.271       .  A
O50          C55   1.265       .  A
O51          C54   1.265       .  A
O52          C64   1.271   1_455  A
O53          C66   1.272       .  A
C54          O59   1.267       .  A
C54         C463   1.465       .  S
C55         C403   1.472       .  S
O57          C60   1.271       .  A
O58          C60   1.263       .  A
C60         C340   1.473       .  S
O61          C66   1.263       .  A
O62          C64   1.272       .  A
C63          O65   1.271   1_655  A
C63         C330   1.485       .  S
C64         C320   1.486       .  S
C66         C350   1.470       .  S
Fe67         O83   2.038       .  S
Fe67         O73   2.041       .  S
Fe67         O80   2.037       .  S
Fe67         O72   2.042       .  S
Fe67         O78   1.966       .  S
Fe68         O75   2.092       .  S
Fe68         O79   2.089       .  S
Fe68        O539   2.068   1_554  S
Fe68        O552   2.068   1_554  S
Fe68         O78   1.982       .  S
Fe69         O87   2.067       .  S
Fe69         O74   2.067       .  S
Fe69         O81   2.074       .  S
Fe69         O70   2.075       .  S
Fe69        O546   1.992       .  S
O70          C77   1.268       .  A
O71        Fe536   2.068       .  S
O71          C85   1.270       .  A
O72         C545   1.265   1_554  A
O73         C544   1.266   1_554  A
O74          C86   1.270       .  A
O75          C88   1.272       .  A
C76          O81   1.268       .  A
C76         O541   1.266       .  A
C76         C310   1.468       .  S
C77         O540   1.265       .  A
C77         C300   1.470       .  S
O78        Fe537   1.992   1_554  S
O79          C82   1.271       .  A
O80          C82   1.263       .  A
C82         C420   1.472       .  S
O83          C88   1.264       .  A
O84        Fe536   2.068       .  S
O84          C86   1.272       .  A
C85          O87   1.270       .  A
C85         C290   1.484       .  S
C86         C280   1.483       .  S
C88         C363   1.475       .  S
Fe89        O105   2.038       .  S
Fe89         O95   2.043       .  S
Fe89        O102   2.038       .  S
Fe89         O94   2.040       .  S
Fe89        O100   1.968       .  S
Fe90         O97   2.093       .  S
Fe90        O101   2.087       .  S
Fe90        O561   2.066   1_554  S
Fe90        O574   2.071   1_554  S
Fe90        O100   1.980       .  S
Fe91        O109   2.072       .  S
Fe91         O96   2.069       .  S
Fe91        O103   2.073       .  S
Fe91         O92   2.077       .  S
Fe91        O568   1.992       .  S
O92          C99   1.269       .  A
O93        Fe558   2.066       .  S
O93         C107   1.271       .  A
O94         C567   1.265   1_554  A
O95         C566   1.266   1_554  A
O96         C108   1.270       .  A
O97         C110   1.272       .  A
C98         O103   1.268       .  A
C98         O563   1.266       .  A
C98         C270   1.469       .  S
C99         O562   1.265       .  A
C99         C313   1.470       .  S
O100       Fe559   1.992   1_554  S
O101        C104   1.271       .  A
O102        C104   1.263       .  A
C104        C373   1.472       .  S
O105        C110   1.263       .  A
O106       Fe558   2.071       .  S
O106        C108   1.272       .  A
C107        O109   1.271       .  A
C107        C250   1.485       .  S
C108        C260   1.486       .  S
C110        C333   1.472       .  S
Fe111       O127   2.040       .  S
Fe111       O117   2.042       .  S
Fe111       O124   2.045       .  S
Fe111       O116   2.041       .  S
Fe111       O122   1.968   1_554  S
Fe112       O119   2.085       .  S
Fe112       O123   2.084       .  S
Fe112       O583   2.060   1_554  S
Fe112       O596   2.066   1_554  S
Fe112       O122   1.979   1_554  S
Fe113       O131   2.070       .  S
Fe113       O118   2.072       .  S
Fe113       O125   2.076       .  S
Fe113       O114   2.077       .  S
Fe113       O590   1.994       .  S
O114        C121   1.269       .  A
O115       Fe580   2.060       .  S
O115        C129   1.270       .  A
O116        C589   1.266   1_554  A
O117        C588   1.266   1_554  A
O118        C130   1.270       .  A
O119        C132   1.270       .  A
C120        O125   1.268       .  A
C120        O585   1.266       .  A
C120        C303   1.469       .  S
C121        O584   1.266       .  A
C121        C273   1.469       .  S
O122       Fe581   1.994       .  S
O123        C126   1.270       .  A
O124        C126   1.264       .  A
C126        C323   1.473       .  S
O127        C132   1.263       .  A
O128       Fe580   2.066       .  S
O128        C130   1.270       .  A
C129        O131   1.270       .  A
C129        C230   1.480       .  S
C130        C240   1.485       .  S
C132        C413   1.470       .  S
Fe133       O149   2.040       .  S
Fe133       O139   2.039       .  S
Fe133       O146   2.038       .  S
Fe133       O138   2.040       .  S
Fe133       O144   1.963       .  S
Fe134       O137   2.068       .  S
Fe134       O141   2.081       .  S
Fe134       O145   2.093       .  S
Fe134       O150   2.059       .  S
Fe134       O144   1.976       .  S
Fe135       O153   2.069       .  S
Fe135       O140   2.071       .  S
Fe135       O147   2.080       .  S
Fe135       O136   2.073       .  S
Fe135       O144   1.990       .  S
O136        C143   1.267       .  A
O137        C151   1.272       .  A
O138        C143   1.265       .  A
O139        C142   1.266       .  A
O140        C152   1.271       .  A
O141        C154   1.269       .  A
C142        O147   1.270       .  A
C142        C220   1.471       .  S
C143        C210   1.467   1_565  S
O145        C148   1.273       .  A
O146        C148   1.264       .  A
C148        C263   1.472       .  S
O149        C154   1.263       .  A
O150        C152   1.269       .  A
C151        O153   1.271       .  A
C151        C433   1.485       .  S
C152        C393   1.480       .  S
C154        C233   1.472       .  S
Fe155       O171   2.041       .  S
Fe155       O161   2.041       .  S
Fe155       O168   2.039       .  S
Fe155       O160   2.043       .  S
Fe155       O166   1.967       .  S
Fe156       O159   2.068       .  S
Fe156       O163   2.087       .  S
Fe156       O167   2.090       .  S
Fe156       O172   2.061       .  S
Fe156       O166   1.980       .  S
Fe157       O175   2.068       .  S
Fe157       O162   2.071       .  S
Fe157       O169   2.077       .  S
Fe157       O158   2.071       .  S
Fe157       O166   1.994       .  S
O158        C165   1.267       .  A
O159        C173   1.271       .  A
O160        C165   1.266       .  A
O161        C164   1.265       .  A
O162        C174   1.270       .  A
O163        C176   1.271       .  A
C164        O169   1.269       .  A
C164        C200   1.470   1_565  S
C165        C223   1.468   1_455  S
O167        C170   1.271       .  A
O168        C170   1.263       .  A
C170        C243   1.474       .  S
O171        C176   1.263       .  A
O172        C174   1.270       .  A
C173        O175   1.270       .  A
C173        C383   1.483       .  S
C174        C343   1.481       .  S
C176        C293   1.471       .  S
Fe177       O193   2.040       .  S
Fe177       O183   2.040       .  S
Fe177       O190   2.035       .  S
Fe177       O182   2.043       .  S
Fe177       O188   1.968       .  S
Fe178       O181   2.069       .  S
Fe178       O185   2.090       .  S
Fe178       O189   2.089       .  S
Fe178       O194   2.068       .  S
Fe178       O188   1.980       .  S
Fe179       O197   2.070       .  S
Fe179       O184   2.067       .  S
Fe179       O191   2.074       .  S
Fe179       O180   2.077       .  S
Fe179       O188   1.992       .  S
O180        C187   1.269       .  A
O181        C195   1.271       .  A
O182        C187   1.266       .  A
O183        C186   1.265       .  A
O184        C196   1.270       .  A
O185        C198   1.272       .  A
C186        O191   1.268       .  A
C186        C213   1.469   1_455  S
C187        C203   1.471       .  S
O189        C192   1.271       .  A
O190        C192   1.262       .  A
C192        C283   1.472       .  S
O193        C198   1.263       .  A
O194        C196   1.271       .  A
C195        O197   1.271       .  A
C195        C353   1.486       .  S
C196        C443   1.484       .  S
C198        C253   1.471       .  S
C199        C200   1.403       .  A
C199        C204   1.391       .  A
C199        H205   1.084       .  S
C200        C201   1.405       .  A
C201        C202   1.403       .  A
C201        H206   1.083       .  S
C202        C203   1.405       .  A
C202        H207   1.083       .  S
C203        C204   1.402       .  A
C204        H208   1.084       .  S
C209        C210   1.404       .  A
C209        C214   1.403       .  A
C209        H215   1.083       .  S
C210        C211   1.402       .  A
C211        C212   1.389       .  A
C211        H216   1.084       .  S
C212        C213   1.402       .  A
C212        H217   1.084       .  S
C213        C214   1.405       .  A
C214        H218   1.083       .  S
C219        C220   1.403       .  A
C219        C224   1.389       .  A
C219        H225   1.084       .  S
C220        C221   1.405       .  A
C221        C222   1.402       .  A
C221        H226   1.083       .  S
C222        C223   1.404       .  A
C222        H227   1.083       .  S
C223        C224   1.401       .  A
C224        H228   1.084       .  S
C229        C230   1.408       .  A
C229        C234   1.402       .  A
C229        H235   1.083       .  S
C230        C231   1.404       .  A
C231        C232   1.393       .  A
C231        H236   1.083       .  S
C232        C233   1.403       .  A
C232        H237   1.083       .  S
C233        C234   1.403       .  A
C234        H238   1.083       .  S
C239        C240   1.409       .  A
C239        C244   1.403   1_655  A
C239        H245   1.083       .  S
C240        C241   1.405       .  A
C241        C242   1.396   1_655  A
C241        H246   1.083       .  S
C242        C243   1.404       .  A
C242        H247   1.083       .  S
C243        C244   1.403       .  A
C244        H248   1.083       .  S
C249        C250   1.409       .  A
C249        C254   1.402   1_655  A
C249        H255   1.083       .  S
C250        C251   1.406       .  A
C251        C252   1.396   1_655  A
C251        H256   1.083       .  S
C252        C253   1.403       .  A
C252        H257   1.083       .  S
C253        C254   1.402       .  A
C254        H258   1.083       .  S
C259        C260   1.406       .  A
C259        C264   1.396   1_545  A
C259        H265   1.083       .  S
C260        C261   1.410       .  A
C261        C262   1.403   1_545  A
C261        H266   1.083       .  S
C262        C263   1.402       .  A
C262        H267   1.083       .  S
C263        C264   1.402       .  A
C264        H268   1.083       .  S
C269        C270   1.402       .  A
C269        C274   1.390       .  A
C269        H275   1.084       .  S
C270        C271   1.405       .  A
C271        C272   1.403       .  A
C271        H276   1.083       .  S
C272        C273   1.405       .  A
C272        H277   1.083       .  S
C273        C274   1.402       .  A
C274        H278   1.084       .  S
C279        C280   1.404       .  A
C279        C284   1.394       .  A
C279        H285   1.083       .  S
C280        C281   1.410       .  A
C281        C282   1.402       .  A
C281        H286   1.083       .  S
C282        C283   1.402       .  A
C282        H287   1.083       .  S
C283        C284   1.404       .  A
C284        H288   1.083       .  S
C289        C290   1.409       .  A
C289        C294   1.402   1_545  A
C289        H295   1.083       .  S
C290        C291   1.405       .  A
C291        C292   1.396   1_545  A
C291        H296   1.083       .  S
C292        C293   1.403       .  A
C292        H297   1.083       .  S
C293        C294   1.402       .  A
C294        H298   1.083       .  S
C299        C300   1.405       .  A
C299        C304   1.403       .  A
C299        H305   1.083       .  S
C300        C301   1.402       .  A
C301        C302   1.390       .  A
C301        H306   1.084       .  S
C302        C303   1.402       .  A
C302        H307   1.084       .  S
C303        C304   1.405       .  A
C304        H308   1.083       .  S
C309        C314   1.390       .  A
C309        C778   1.402       .  A
C309        H315   1.084   1_556  S
C310        C311   1.404       .  A
C310        C777   1.402       .  A
C311        C312   1.402       .  A
C311        H316   1.083       .  S
C312        C313   1.405       .  A
C312        H317   1.083       .  S
C313        C782   1.403       .  A
C314        C781   1.403       .  A
C314        H318   1.084   1_556  S
C319        C320   1.406       .  A
C319        C324   1.396       .  A
C319        H325   1.083       .  S
C320        C321   1.409       .  A
C321        C322   1.402       .  A
C321        H326   1.083   1_655  S
C322        C323   1.402       .  A
C322        H327   1.083       .  S
C323        C324   1.403       .  A
C324        H328   1.083       .  S
C329        C330   1.406       .  A
C329        C334   1.398       .  A
C329        H335   1.083       .  S
C330        C331   1.409       .  A
C331        C332   1.402       .  A
C331        H336   1.083   1_655  S
C332        C333   1.401       .  A
C332        H337   1.083       .  S
C333        C334   1.404       .  A
C334        H338   1.083       .  S
C339        C340   1.403       .  A
C339        C344   1.403       .  A
C339        H345   1.083       .  S
C340        C341   1.404       .  A
C341        C342   1.393       .  A
C341        H346   1.083       .  S
C342        C343   1.404       .  A
C342        H347   1.083       .  S
C343        C344   1.409       .  A
C344        H348   1.083       .  S
C349        C350   1.403       .  A
C349        C354   1.397       .  A
C349        H355   1.083       .  S
C350        C351   1.401       .  A
C351        C352   1.402       .  A
C351        H356   1.084       .  S
C352        C353   1.409       .  A
C352        H357   1.083       .  S
C353        C354   1.407       .  A
C354        H358   1.083       .  S
C359        C360   1.409       .  A
C359        C364   1.404       .  A
C359        H365   1.083   1_545  S
C360        C361   1.404       .  A
C361        C362   1.394       .  A
C361        H366   1.083       .  S
C362        C363   1.404       .  A
C362        H367   1.083       .  S
C363        C364   1.404       .  A
C364        H368   1.083       .  S
C369        C370   1.404       .  A
C369        C374   1.394       .  A
C369        H375   1.083       .  S
C370        C371   1.409       .  A
C371        C372   1.402       .  A
C371        H376   1.083   1_545  S
C372        C373   1.402       .  A
C372        H377   1.083       .  S
C373        C374   1.404       .  A
C374        H378   1.083       .  S
C379        C380   1.404       .  A
C379        C384   1.395       .  A
C379        H385   1.083       .  S
C380        C381   1.402       .  A
C381        C382   1.402       .  A
C381        H386   1.083       .  S
C382        C383   1.409       .  A
C382        H387   1.083       .  S
C383        C384   1.404       .  A
C384        H388   1.083       .  S
C389        C390   1.402       .  A
C389        C394   1.394       .  A
C389        H395   1.083       .  S
C390        C391   1.402       .  A
C391        C392   1.401       .  A
C391        H396   1.083       .  S
C392        C393   1.408       .  A
C392        H397   1.083       .  S
C393        C394   1.405       .  A
C394        H398   1.083       .  S
C399        C400   1.402       .  A
C399        C404   1.390       .  A
C399        H405   1.084       .  S
C400        C401   1.405       .  A
C401        C402   1.403       .  A
C401        H406   1.083       .  S
C402        C403   1.406       .  A
C402        H407   1.083       .  S
C403        C404   1.403       .  A
C404        H408   1.084       .  S
C409        C410   1.406       .  A
C409        C414   1.395       .  A
C409        H415   1.083       .  S
C410        C411   1.409       .  A
C411        C412   1.402       .  A
C411        H416   1.083       .  S
C412        C413   1.402       .  A
C412        H417   1.083       .  S
C413        C414   1.402       .  A
C414        H418   1.083       .  S
C419        C420   1.403       .  A
C419        C424   1.403       .  A
C419        H425   1.083       .  S
C420        C421   1.402       .  A
C421        C422   1.394       .  A
C421        H426   1.083       .  S
C422        C423   1.405       .  A
C422        H427   1.083       .  S
C423        C424   1.410       .  A
C424        H428   1.083       .  S
C429        C430   1.402       .  A
C429        C434   1.395       .  A
C429        H435   1.083       .  S
C430        C431   1.402       .  A
C431        C432   1.403       .  A
C431        H436   1.083       .  S
C432        C433   1.409       .  A
C432        H437   1.083       .  S
C433        C434   1.406       .  A
C434        H438   1.083       .  S
C439        C440   1.402       .  A
C439        C444   1.401       .  A
C439        H445   1.083       .  S
C440        C441   1.402       .  A
C441        C442   1.396       .  A
C441        H446   1.083       .  S
C442        C443   1.406       .  A
C442        H447   1.083       .  S
C443        C444   1.409       .  A
C444        H448   1.083       .  S
C449        C450   1.404       .  A
C449        C454   1.401       .  A
C449        H455   1.083       .  S
C450        C451   1.402       .  A
C451        C452   1.390       .  A
C451        H456   1.084       .  S
C452        C453   1.402       .  A
C452        H457   1.084       .  S
C453        C454   1.404       .  A
C454        H458   1.083       .  S
C459        C460   1.405       .  A
C459        C464   1.402       .  A
C459        H465   1.083       .  S
C460        C461   1.402       .  A
C461        C462   1.389       .  A
C461        H466   1.084       .  S
C462        C463   1.402       .  A
C462        H467   1.084       .  S
C463        C464   1.404       .  A
C464        H468   1.083       .  S
Fe469       O485   2.039       .  S
Fe469       O475   2.044       .  S
Fe469       O482   2.043       .  S
Fe469       O474   2.041       .  S
Fe469       O480   1.969       .  S
Fe470       O473   2.064       .  S
Fe470       O477   2.087       .  S
Fe470       O481   2.084       .  S
Fe470       O486   2.065       .  S
Fe470       O480   1.977       .  S
Fe471       O489   2.069       .  S
Fe471       O476   2.069       .  S
Fe471       O483   2.071       .  S
Fe471       O472   2.072       .  S
Fe471       O480   1.993       .  S
O472        C479   1.268       .  A
O473        C487   1.270       .  A
O474        C479   1.266       .  A
O475        C478   1.266       .  A
O476        C488   1.270       .  A
O477        C490   1.270       .  A
C478        O483   1.267       .  A
C478        C918   1.467       .  S
C479        C928   1.468       .  S
O481        C484   1.270       .  A
O482        C484   1.264       .  A
C484        C908   1.471       .  S
O485        C490   1.263       .  A
O486        C488   1.270       .  A
C487        O489   1.270       .  A
C487        C878   1.483       .  S
C488        C891   1.484       .  S
C490        C898   1.471       .  S
Fe491       O507   2.038       .  S
Fe491       O497   2.040       .  S
Fe491       O504   2.035       .  S
Fe491       O496   2.038       .  S
Fe491       O502   1.967       .  S
Fe492       O495   2.065   1_565  S
Fe492       O499   2.087       .  S
Fe492       O503   2.086       .  S
Fe492       O508   2.065   1_565  S
Fe492       O502   1.980       .  S
Fe493       O511   2.071       .  S
Fe493       O498   2.069       .  S
Fe493       O505   2.077       .  S
Fe493       O494   2.073       .  S
Fe493       O502   1.992       .  S
O494        C501   1.268       .  A
O495        C509   1.270       .  A
O496        C501   1.265       .  A
O497        C500   1.265       .  A
O498        C510   1.270   1_565  A
O499        C512   1.271       .  A
C500        O505   1.269       .  A
C500        C868   1.469       .  S
C501        C921   1.466       .  S
O503        C506   1.270       .  A
O504        C506   1.262       .  A
C506        C858   1.468       .  S
O507        C512   1.263       .  A
O508        C510   1.271       .  A
C509        O511   1.270   1_545  A
C509        C828   1.483       .  S
C510        C838   1.481       .  S
C512        C848   1.472       .  S
Fe513       O529   2.037       .  S
Fe513       O519   2.039       .  S
Fe513       O526   2.038       .  S
Fe513       O518   2.040       .  S
Fe513       O524   1.966       .  S
Fe514       O517   2.068   1_455  S
Fe514       O521   2.092       .  S
Fe514       O525   2.088       .  S
Fe514       O530   2.071   1_455  S
Fe514       O524   1.977       .  S
Fe515       O533   2.071       .  S
Fe515       O520   2.068       .  S
Fe515       O527   2.070       .  S
Fe515       O516   2.081       .  S
Fe515       O524   1.989       .  S
O516        C523   1.270       .  A
O517        C531   1.271       .  A
O518        C523   1.265       .  A
O519        C522   1.265       .  A
O520        C532   1.271   1_455  A
O521        C534   1.272       .  A
C522        O527   1.267       .  A
C522        C931   1.465       .  S
C523        C871   1.472       .  S
O525        C528   1.271       .  A
O526        C528   1.263       .  A
C528        C808   1.473       .  S
O529        C534   1.263       .  A
O530        C532   1.272       .  A
C531        O533   1.271   1_655  A
C531        C798   1.485       .  S
C532        C788   1.486       .  S
C534        C818   1.470       .  S
Fe535       O551   2.038       .  S
Fe535       O541   2.041       .  S
Fe535       O548   2.037       .  S
Fe535       O540   2.042       .  S
Fe535       O546   1.966       .  S
Fe536       O543   2.092       .  S
Fe536       O547   2.089       .  S
Fe536       O546   1.982       .  S
Fe537       O555   2.067       .  S
Fe537       O542   2.067       .  S
Fe537       O549   2.074       .  S
Fe537       O538   2.075       .  S
O538        C545   1.268       .  A
O539        C553   1.270       .  A
O542        C554   1.270       .  A
O543        C556   1.272       .  A
C544        O549   1.268       .  A
C544        C778   1.468       .  S
C545        C768   1.470       .  S
O547        C550   1.271       .  A
O548        C550   1.263       .  A
C550        C888   1.472       .  S
O551        C556   1.264       .  A
O552        C554   1.272       .  A
C553        O555   1.270       .  A
C553        C758   1.484       .  S
C554        C748   1.483       .  S
C556        C831   1.475       .  S
Fe557       O573   2.038       .  S
Fe557       O563   2.043       .  S
Fe557       O570   2.038       .  S
Fe557       O562   2.040       .  S
Fe557       O568   1.968       .  S
Fe558       O565   2.093       .  S
Fe558       O569   2.087       .  S
Fe558       O568   1.980       .  S
Fe559       O577   2.072       .  S
Fe559       O564   2.069       .  S
Fe559       O571   2.073       .  S
Fe559       O560   2.077       .  S
O560        C567   1.269       .  A
O561        C575   1.271       .  A
O564        C576   1.270       .  A
O565        C578   1.272       .  A
C566        O571   1.268       .  A
C566        C738   1.469       .  S
C567        C781   1.470       .  S
O569        C572   1.271       .  A
O570        C572   1.263       .  A
C572        C841   1.472       .  S
O573        C578   1.263       .  A
O574        C576   1.272       .  A
C575        O577   1.271       .  A
C575        C718   1.485       .  S
C576        C728   1.486       .  S
C578        C801   1.472       .  S
Fe579       O595   2.040       .  S
Fe579       O585   2.042       .  S
Fe579       O592   2.045       .  S
Fe579       O584   2.041       .  S
Fe579       O590   1.968       .  S
Fe580       O587   2.085       .  S
Fe580       O591   2.084       .  S
Fe580       O590   1.979       .  S
Fe581       O599   2.070       .  S
Fe581       O586   2.072       .  S
Fe581       O593   2.076       .  S
Fe581       O582   2.077       .  S
O582        C589   1.269       .  A
O583        C597   1.270       .  A
O586        C598   1.270       .  A
O587        C600   1.270       .  A
C588        O593   1.268       .  A
C588        C771   1.469       .  S
C589        C741   1.469       .  S
O591        C594   1.270       .  A
O592        C594   1.264       .  A
C594        C791   1.473       .  S
O595        C600   1.263       .  A
O596        C598   1.270       .  A
C597        O599   1.270       .  A
C597        C698   1.480       .  S
C598        C708   1.485       .  S
C600        C881   1.470       .  S
Fe601       O617   2.040       .  S
Fe601       O607   2.039       .  S
Fe601       O614   2.038       .  S
Fe601       O606   2.040       .  S
Fe601       O612   1.963       .  S
Fe602       O605   2.068       .  S
Fe602       O609   2.081       .  S
Fe602       O613   2.093       .  S
Fe602       O618   2.059       .  S
Fe602       O612   1.976       .  S
Fe603       O621   2.069       .  S
Fe603       O608   2.071       .  S
Fe603       O615   2.080       .  S
Fe603       O604   2.073       .  S
Fe603       O612   1.990       .  S
O604        C611   1.267       .  A
O605        C619   1.272       .  A
O606        C611   1.265       .  A
O607        C610   1.266       .  A
O608        C620   1.271       .  A
O609        C622   1.269       .  A
C610        O615   1.270       .  A
C610        C688   1.471       .  S
C611        C678   1.467   1_565  S
O613        C616   1.273       .  A
O614        C616   1.264       .  A
C616        C731   1.472       .  S
O617        C622   1.263       .  A
O618        C620   1.269       .  A
C619        O621   1.271       .  A
C619        C901   1.485       .  S
C620        C861   1.480       .  S
C622        C701   1.472       .  S
Fe623       O639   2.041       .  S
Fe623       O629   2.041       .  S
Fe623       O636   2.039       .  S
Fe623       O628   2.043       .  S
Fe623       O634   1.967       .  S
Fe624       O627   2.068       .  S
Fe624       O631   2.087       .  S
Fe624       O635   2.090       .  S
Fe624       O640   2.061       .  S
Fe624       O634   1.980       .  S
Fe625       O643   2.068       .  S
Fe625       O630   2.071       .  S
Fe625       O637   2.077       .  S
Fe625       O626   2.071       .  S
Fe625       O634   1.994       .  S
O626        C633   1.267       .  A
O627        C641   1.271       .  A
O628        C633   1.266       .  A
O629        C632   1.265       .  A
O630        C642   1.270       .  A
O631        C644   1.271       .  A
C632        O637   1.269       .  A
C632        C668   1.470   1_565  S
C633        C691   1.468   1_455  S
O635        C638   1.271       .  A
O636        C638   1.263       .  A
C638        C711   1.474       .  S
O639        C644   1.263       .  A
O640        C642   1.270       .  A
C641        O643   1.270       .  A
C641        C851   1.483       .  S
C642        C811   1.481       .  S
C644        C761   1.471       .  S
Fe645       O661   2.040       .  S
Fe645       O651   2.040       .  S
Fe645       O658   2.035       .  S
Fe645       O650   2.043       .  S
Fe645       O656   1.968       .  S
Fe646       O649   2.069       .  S
Fe646       O653   2.090       .  S
Fe646       O657   2.089       .  S
Fe646       O662   2.068       .  S
Fe646       O656   1.980       .  S
Fe647       O665   2.070       .  S
Fe647       O652   2.067       .  S
Fe647       O659   2.074       .  S
Fe647       O648   2.077       .  S
Fe647       O656   1.992       .  S
O648        C655   1.269       .  A
O649        C663   1.271       .  A
O650        C655   1.266       .  A
O651        C654   1.265       .  A
O652        C664   1.270       .  A
O653        C666   1.272       .  A
C654        O659   1.268       .  A
C654        C681   1.469   1_455  S
C655        C671   1.471       .  S
O657        C660   1.271       .  A
O658        C660   1.262       .  A
C660        C751   1.472       .  S
O661        C666   1.263       .  A
O662        C664   1.271       .  A
C663        O665   1.271       .  A
C663        C821   1.486       .  S
C664        C911   1.484       .  S
C666        C721   1.471       .  S
C667        C668   1.403       .  A
C667        C672   1.391       .  A
C667        H673   1.084       .  S
C668        C669   1.405       .  A
C669        C670   1.403       .  A
C669        H674   1.083       .  S
C670        C671   1.405       .  A
C670        H675   1.083       .  S
C671        C672   1.402       .  A
C672        H676   1.084       .  S
C677        C678   1.404       .  A
C677        C682   1.403       .  A
C677        H683   1.083       .  S
C678        C679   1.402       .  A
C679        C680   1.389       .  A
C679        H684   1.084       .  S
C680        C681   1.402       .  A
C680        H685   1.084       .  S
C681        C682   1.405       .  A
C682        H686   1.083       .  S
C687        C688   1.403       .  A
C687        C692   1.389       .  A
C687        H693   1.084       .  S
C688        C689   1.405       .  A
C689        C690   1.402       .  A
C689        H694   1.083       .  S
C690        C691   1.404       .  A
C690        H695   1.083       .  S
C691        C692   1.401       .  A
C692        H696   1.084       .  S
C697        C698   1.408       .  A
C697        C702   1.402       .  A
C697        H703   1.083       .  S
C698        C699   1.404       .  A
C699        C700   1.393       .  A
C699        H704   1.083       .  S
C700        C701   1.403       .  A
C700        H705   1.083       .  S
C701        C702   1.403       .  A
C702        H706   1.083       .  S
C707        C708   1.409       .  A
C707        C712   1.403   1_655  A
C707        H713   1.083       .  S
C708        C709   1.405       .  A
C709        C710   1.396   1_655  A
C709        H714   1.083       .  S
C710        C711   1.404       .  A
C710        H715   1.083       .  S
C711        C712   1.403       .  A
C712        H716   1.083       .  S
C717        C718   1.409       .  A
C717        C722   1.402   1_655  A
C717        H723   1.083       .  S
C718        C719   1.406       .  A
C719        C720   1.396   1_655  A
C719        H724   1.083       .  S
C720        C721   1.403       .  A
C720        H725   1.083       .  S
C721        C722   1.402       .  A
C722        H726   1.083       .  S
C727        C728   1.406       .  A
C727        C732   1.396   1_545  A
C727        H733   1.083       .  S
C728        C729   1.410       .  A
C729        C730   1.403   1_545  A
C729        H734   1.083       .  S
C730        C731   1.402       .  A
C730        H735   1.083       .  S
C731        C732   1.402       .  A
C732        H736   1.083       .  S
C737        C738   1.402       .  A
C737        C742   1.390       .  A
C737        H743   1.084   1_556  S
C738        C739   1.405       .  A
C739        C740   1.403       .  A
C739        H744   1.083       .  S
C740        C741   1.405       .  A
C740        H745   1.083       .  S
C741        C742   1.402       .  A
C742        H746   1.084   1_556  S
C747        C748   1.404       .  A
C747        C752   1.394       .  A
C747        H753   1.083       .  S
C748        C749   1.410       .  A
C749        C750   1.402       .  A
C749        H754   1.083       .  S
C750        C751   1.402       .  A
C750        H755   1.083       .  S
C751        C752   1.404       .  A
C752        H756   1.083       .  S
C757        C758   1.409       .  A
C757        C762   1.402   1_545  A
C757        H763   1.083       .  S
C758        C759   1.405       .  A
C759        C760   1.396   1_545  A
C759        H764   1.083       .  S
C760        C761   1.403       .  A
C760        H765   1.083       .  S
C761        C762   1.402       .  A
C762        H766   1.083       .  S
C767        C768   1.405       .  A
C767        C772   1.403       .  A
C767        H773   1.083       .  S
C768        C769   1.402       .  A
C769        C770   1.390       .  A
C769        H774   1.084   1_556  S
C770        C771   1.402       .  A
C770        H775   1.084   1_556  S
C771        C772   1.405       .  A
C772        H776   1.083       .  S
C777        C782   1.390       .  A
C777        H783   1.084       .  S
C778        C779   1.404       .  A
C779        C780   1.402       .  A
C779        H784   1.083       .  S
C780        C781   1.405       .  A
C780        H785   1.083       .  S
C782        H786   1.084       .  S
C787        C788   1.406       .  A
C787        C792   1.396       .  A
C787        H793   1.083       .  S
C788        C789   1.409       .  A
C789        C790   1.402       .  A
C789        H794   1.083   1_655  S
C790        C791   1.402       .  A
C790        H795   1.083       .  S
C791        C792   1.403       .  A
C792        H796   1.083       .  S
C797        C798   1.406       .  A
C797        C802   1.398       .  A
C797        H803   1.083       .  S
C798        C799   1.409       .  A
C799        C800   1.402       .  A
C799        H804   1.083   1_655  S
C800        C801   1.401       .  A
C800        H805   1.083       .  S
C801        C802   1.404       .  A
C802        H806   1.083       .  S
C807        C808   1.403       .  A
C807        C812   1.403       .  A
C807        H813   1.083       .  S
C808        C809   1.404       .  A
C809        C810   1.393       .  A
C809        H814   1.083       .  S
C810        C811   1.404       .  A
C810        H815   1.083       .  S
C811        C812   1.409       .  A
C812        H816   1.083       .  S
C817        C818   1.403       .  A
C817        C822   1.397       .  A
C817        H823   1.083       .  S
C818        C819   1.401       .  A
C819        C820   1.402       .  A
C819        H824   1.084       .  S
C820        C821   1.409       .  A
C820        H825   1.083       .  S
C821        C822   1.407       .  A
C822        H826   1.083       .  S
C827        C828   1.409       .  A
C827        C832   1.404       .  A
C827        H833   1.083   1_545  S
C828        C829   1.404       .  A
C829        C830   1.394       .  A
C829        H834   1.083       .  S
C830        C831   1.404       .  A
C830        H835   1.083       .  S
C831        C832   1.404       .  A
C832        H836   1.083       .  S
C837        C838   1.404       .  A
C837        C842   1.394       .  A
C837        H843   1.083       .  S
C838        C839   1.409       .  A
C839        C840   1.402       .  A
C839        H844   1.083   1_545  S
C840        C841   1.402       .  A
C840        H845   1.083       .  S
C841        C842   1.404       .  A
C842        H846   1.083       .  S
C847        C848   1.404       .  A
C847        C852   1.395       .  A
C847        H853   1.083       .  S
C848        C849   1.402       .  A
C849        C850   1.402       .  A
C849        H854   1.083       .  S
C850        C851   1.409       .  A
C850        H855   1.083       .  S
C851        C852   1.404       .  A
C852        H856   1.083       .  S
C857        C858   1.402       .  A
C857        C862   1.394       .  A
C857        H863   1.083       .  S
C858        C859   1.402       .  A
C859        C860   1.401       .  A
C859        H864   1.083       .  S
C860        C861   1.408       .  A
C860        H865   1.083       .  S
C861        C862   1.405       .  A
C862        H866   1.083       .  S
C867        C868   1.402       .  A
C867        C872   1.390       .  A
C867        H873   1.084       .  S
C868        C869   1.405       .  A
C869        C870   1.403       .  A
C869        H874   1.083       .  S
C870        C871   1.406       .  A
C870        H875   1.083       .  S
C871        C872   1.403       .  A
C872        H876   1.084       .  S
C877        C878   1.406       .  A
C877        C882   1.395       .  A
C877        H883   1.083       .  S
C878        C879   1.409       .  A
C879        C880   1.402       .  A
C879        H884   1.083       .  S
C880        C881   1.402       .  A
C880        H885   1.083       .  S
C881        C882   1.402       .  A
C882        H886   1.083       .  S
C887        C888   1.403       .  A
C887        C892   1.403       .  A
C887        H893   1.083       .  S
C888        C889   1.402       .  A
C889        C890   1.394       .  A
C889        H894   1.083       .  S
C890        C891   1.405       .  A
C890        H895   1.083       .  S
C891        C892   1.410       .  A
C892        H896   1.083       .  S
C897        C898   1.402       .  A
C897        C902   1.395       .  A
C897        H903   1.083       .  S
C898        C899   1.402       .  A
C899        C900   1.403       .  A
C899        H904   1.083       .  S
C900        C901   1.409       .  A
C900        H905   1.083       .  S
C901        C902   1.406       .  A
C902        H906   1.083       .  S
C907        C908   1.402       .  A
C907        C912   1.401       .  A
C907        H913   1.083       .  S
C908        C909   1.402       .  A
C909        C910   1.396       .  A
C909        H914   1.083       .  S
C910        C911   1.406       .  A
C910        H915   1.083       .  S
C911        C912   1.409       .  A
C912        H916   1.083       .  S
C917        C918   1.404       .  A
C917        C922   1.401       .  A
C917        H923   1.083       .  S
C918        C919   1.402       .  A
C919        C920   1.390       .  A
C919        H924   1.084       .  S
C920        C921   1.402       .  A
C920        H925   1.084       .  S
C921        C922   1.404       .  A
C922        H926   1.083       .  S
C927        C928   1.405       .  A
C927        C932   1.402       .  A
C927        H933   1.083       .  S
C928        C929   1.402       .  A
C929        C930   1.389       .  A
C929        H934   1.084       .  S
C930        C931   1.402       .  A
C930        H935   1.084       .  S
C931        C932   1.404       .  A
C932        H936   1.083       .  S
