geometry optimzed in LAMMPS
_audit_creation_date              2020-11-30 
_audit_creation_method            'lammps2cif' 
_symmetry_space_group_name_H-M    'P1' 
_symmetry_Int_Tables_number       1 
_symmetry_cell_setting            triclinic 
loop_ 
_symmetry_equiv_pos_as_xyz 
  x,y,z 
_cell_length_a                    45.68286506 
_cell_length_b                    33.85584228612219 
_cell_length_c                    33.51781530350782 
_cell_angle_alpha                 89.96340726787066 
_cell_angle_beta                  90.08494691969264 
_cell_angle_gamma                 90.05473064524939 
loop_ 
_atom_site_label 
_atom_site_type_symbol 
_atom_site_fract_x 
_atom_site_fract_y 
_atom_site_fract_z 
_atom_site_charge 
C1          C  0.00337243  0.68833104  0.05136576     0.79900
N2          N  0.02881920  0.67811142  0.03291980    -0.78500
C3          C  0.02840754  0.65486049  0.99987112     0.82300
N4          N  0.50236832  0.64207643  0.98518105    -0.78400
C5          C  0.47691295  0.65139375  0.00365279     0.82400
N6          N  0.47750258  0.67439885  0.03681680    -0.80100
C7          C  0.00096066  0.22227844  0.02490812     0.79900
N8          N  0.47523699  0.23438059  0.00837668    -0.78500
C9          C  0.47509601  0.25773650  0.97543442     0.82300
N10         N  0.00091584  0.26924449  0.95918576    -0.78400
C11         C  0.02678673  0.25824027  0.97573508     0.82400
N12         N  0.02673392  0.23471474  0.00866519    -0.80100
Fe13       Fe  0.28989091  0.46801527  0.80477562     1.65800
Fe14       Fe  0.21532637  0.46958233  0.80284546     1.73200
Fe15       Fe  0.25115913  0.46080718  0.89240809     1.54400
O16         O  0.28382684  0.41788494  0.89337338    -0.82000
O17         O  0.19808635  0.51137612  0.83989691    -0.80300
O18         O  0.30586071  0.41929039  0.83411068    -0.84500
O19         O  0.30887180  0.50526871  0.84602218    -0.79400
O20         O  0.22012061  0.41623762  0.89140119    -0.81200
O21         O  0.23014041  0.51555744  0.76711463    -0.83900
C22         C  0.30364336  0.51702210  0.88124250     0.96800
C23         C  0.30287089  0.40506989  0.86889850     1.04300
O24         O  0.25212486  0.46605357  0.83344751    -1.12900
O25         O  0.22792085  0.42773532  0.76202240    -0.75300
O26         O  0.27645485  0.43052503  0.75936874    -0.78800
O27         O  0.28189411  0.50475950  0.90126767    -0.79500
C28         C  0.25212124  0.41684727  0.74729231     0.95700
O29         O  0.27862421  0.51750136  0.77239052    -0.77500
O30         O  0.19517700  0.42482121  0.83491430    -0.82700
C31         C  0.19998947  0.51967590  0.87664150     0.98400
C32         C  0.19907494  0.40753769  0.86818869     1.04300
O33         O  0.21845391  0.50313400  0.89966715    -0.78300
C34         C  0.25471059  0.53134166  0.75920508     1.02600
C35         C  0.25304540  0.74101145  0.54628896     0.79900
N36         N  0.27828997  0.75403177  0.52920627    -0.78500
C37         C  0.27767680  0.77684133  0.49588555     0.82300
N38         N  0.25147167  0.78645378  0.47947360    -0.78400
C39         C  0.22604198  0.77425327  0.49634298     0.82400
N40         N  0.22685410  0.75168512  0.52993909    -0.80100
C41         C  0.25314037  0.21415012  0.52654281     0.79900
N42         N  0.27924535  0.20116563  0.51192845    -0.78500
C43         C  0.27996834  0.17600423  0.48038739     0.82300
N44         N  0.25450287  0.16362564  0.46373651    -0.78400
C45         C  0.22829236  0.17559717  0.47835224     0.82400
N46         N  0.22775988  0.20092916  0.50978279    -0.80100
Fe47       Fe  0.46527757  0.96845844  0.30332432     1.65800
Fe48       Fe  0.03993569  0.96716627  0.30192542     1.73200
Fe49       Fe  0.00346554  0.97213101  0.39157688     1.54400
O50         O  0.47083379  0.01459204  0.39450618    -0.82000
O51         O  0.05774450  0.92415534  0.33823685    -0.80300
O52         O  0.44821270  0.01508206  0.33560575    -0.84500
O53         O  0.44670411  0.92881572  0.34182492    -0.79400
O54         O  0.03458592  0.01698881  0.39255983    -0.81200
O55         O  0.02588359  0.92272489  0.26438024    -0.83900
C56         C  0.45101566  0.91606409  0.37688405     0.96800
C57         C  0.45130743  0.02782202  0.37101964     1.04300
O58         O  0.00290580  0.96929052  0.33237684    -1.12900
O59         O  0.02711428  0.01036827  0.26170334    -0.75300
O60         O  0.47848470  0.00876031  0.26103290    -0.78800
O61         O  0.47239499  0.92760540  0.39828766    -0.79500
C62         C  0.00262119  0.02236622  0.24846978     0.95700
O63         O  0.47730909  0.92103960  0.26772561    -0.77500
O64         O  0.05930968  0.01060304  0.33567198    -0.82700
C65         C  0.05528459  0.91475832  0.37476651     0.98400
C66         C  0.05558829  0.02647436  0.36956874     1.04300
O67         O  0.03616590  0.93009996  0.39745949    -0.78300
C68         C  0.00145465  0.90770488  0.25467408     1.02600
C69         C  0.43015933  0.05769505  0.38605399    -0.01700
C70         C  0.41119770  0.07695141  0.35952937    -0.09700
C71         C  0.38837195  0.10055766  0.37352171    -0.18500
C72         C  0.38337495  0.10533611  0.41488202     0.03900
C73         C  0.40367184  0.08778541  0.44173060     0.18100
C74         C  0.42679915  0.06437747  0.42719295    -0.19900
C75         C  0.40019036  0.09262801  0.48296478    -0.21200
C76         C  0.37651223  0.11364119  0.49818131    -0.20100
C77         C  0.35539140  0.12973269  0.47260290     0.19500
C78         C  0.35856241  0.12588868  0.43053090     0.01600
C79         C  0.33605234  0.14120002  0.40600040    -0.14500
C80         C  0.31107735  0.15821022  0.42253671    -0.12200
C81         C  0.30794245  0.16165317  0.46387701     0.01100
C82         C  0.33050210  0.14830187  0.48882770    -0.24400
H83         H  0.41353312  0.07299517  0.32762352     0.09100
H84         H  0.37474853  0.11411535  0.35113704     0.12700
H85         H  0.44138038  0.04988783  0.44812262     0.11400
H86         H  0.41567209  0.07957648  0.50364166     0.12600
H87         H  0.37427334  0.11636922  0.53025067     0.11600
H88         H  0.33654437  0.13927219  0.37394431     0.08700
H89         H  0.29385692  0.16840445  0.40279504     0.12000
H90         H  0.32794211  0.15043778  0.52091754     0.13800
C91         C  0.07798447  0.05526801  0.38335691    -0.01700
C92         C  0.07451856  0.07670149  0.41881275    -0.09700
C93         C  0.09738806  0.09998097  0.43388473    -0.18500
C94         C  0.12478323  0.10193657  0.41421576     0.03900
C95         C  0.12791194  0.08058151  0.37797298     0.18100
C96         C  0.10458913  0.05832166  0.36270269    -0.19900
C97         C  0.15466212  0.08027820  0.35773144    -0.21200
C98         C  0.17878693  0.09984969  0.37326690    -0.19700
C99         C  0.17663409  0.12079758  0.40907548     0.19500
C100        C  0.14949901  0.12304771  0.42968945     0.01600
C101        C  0.14857845  0.14575549  0.46512526    -0.14500
C102        C  0.17385854  0.16382572  0.48027970    -0.12200
C103        C  0.20082052  0.15980564  0.46074293     0.01100
C104        C  0.20176654  0.13889213  0.42468363    -0.24400
H105        H  0.05426466  0.07483569  0.43546513     0.09100
H106        H  0.09328314  0.11509076  0.46160193     0.12700
H107        H  0.10779238  0.04169673  0.33541469     0.11400
H108        H  0.15714915  0.06397905  0.33011673     0.12600
H109        H  0.19937827  0.09826666  0.35731892     0.11600
H110        H  0.12871908  0.14981106  0.48193798     0.08700
H111        H  0.17237891  0.18018108  0.50796168     0.12000
H112        H  0.22232147  0.13609585  0.40880154     0.13800
C113        C  0.30513200  0.79214594  0.47808627    -0.01700
C114        C  0.33121820  0.79312309  0.50015176    -0.09700
C115        C  0.35660935  0.80998149  0.48419451    -0.18500
C116        C  0.35675912  0.82625825  0.44531095     0.03900
C117        C  0.33048859  0.82374879  0.42258028     0.18100
C118        C  0.30512545  0.80712628  0.43911358    -0.19900
C119        C  0.32947901  0.83831101  0.38356665    -0.21200
C120        C  0.35386432  0.85611980  0.36675445    -0.19700
C121        C  0.37971240  0.86039246  0.38876856     0.19500
C122        C  0.38172647  0.84546918  0.42829659     0.01600
C123        C  0.40831004  0.85159948  0.44926640    -0.14500
C124        C  0.43134638  0.87310545  0.43221010    -0.12200
C125        C  0.42883854  0.88855117  0.39355726     0.01100
C126        C  0.40319437  0.88090417  0.37174520    -0.24400
H127        H  0.33188699  0.78159956  0.53028882     0.09100
H128        H  0.37572327  0.81000277  0.50308096     0.12700
H129        H  0.28520424  0.80606012  0.42150121     0.11400
H130        H  0.30958696  0.83621943  0.36601631     0.12600
H131        H  0.35226560  0.86747170  0.33657955     0.11600
H132        H  0.41162095  0.84122883  0.47934047     0.08700
H133        H  0.45086480  0.87850971  0.44976154     0.12000
H134        H  0.40079034  0.89261658  0.34179879     0.13800
C135        C  0.19801759  0.78664659  0.47823116    -0.01700
C136        C  0.19525266  0.78757228  0.43666492    -0.09700
C137        C  0.17043892  0.80361480  0.41856848    -0.18500
C138        C  0.14777021  0.82049523  0.44162881     0.03900
C139        C  0.15050016  0.81895202  0.48392066     0.18100
C140        C  0.17517644  0.80129398  0.50177918    -0.19900
C141        C  0.12921599  0.83655571  0.50806665    -0.21200
C142        C  0.10579968  0.85687075  0.49116803    -0.19700
C143        C  0.10273493  0.85946978  0.44966882     0.19500
C144        C  0.12322461  0.84039747  0.42428507     0.01600
C145        C  0.11865925  0.84305663  0.38262353    -0.14500
C146        C  0.09591155  0.86575805  0.36686113    -0.12200
C147        C  0.07665465  0.88629087  0.39189189     0.01100
C148        C  0.07976205  0.88203457  0.43338331    -0.24400
H149        H  0.21269082  0.77633373  0.41797222     0.09100
H150        H  0.17022096  0.80365012  0.38642991     0.12700
H151        H  0.17743412  0.80109987  0.53399696     0.11400
H152        H  0.13113535  0.83557631  0.54028798     0.12600
H153        H  0.09017302  0.87111883  0.51073210     0.11600
H154        H  0.13254342  0.82841063  0.36131593     0.08700
H155        H  0.09384308  0.86793120  0.33473703     0.12000
H156        H  0.06498385  0.89758804  0.45317792     0.13800
C157        C  0.25169942  0.38700329  0.71484305    -0.01700
C158        C  0.22504212  0.37083772  0.70194472    -0.09700
C159        C  0.22414735  0.34259672  0.67169323    -0.18500
C160        C  0.25006819  0.32935648  0.65303529     0.03900
C161        C  0.27708666  0.34590327  0.66601843     0.18100
C162        C  0.27767312  0.37435609  0.69658012    -0.19900
C163        C  0.30339181  0.33392680  0.64845280    -0.21200
C164        C  0.30349891  0.30577646  0.61827047    -0.19700
C165        C  0.27730338  0.28885176  0.60486748     0.19500
C166        C  0.25017705  0.30036627  0.62200777     0.01600
C167        C  0.22438607  0.28234850  0.60727038    -0.14500
C168        C  0.22551346  0.25437054  0.57672852    -0.12200
C169        C  0.25228814  0.24315295  0.55978867     0.01100
C170        C  0.27812303  0.26052645  0.57423811    -0.24400
H171        H  0.20458410  0.37995809  0.71536898     0.09100
H172        H  0.20277139  0.33173541  0.66367755     0.12700
H173        H  0.29846034  0.38662342  0.70614968     0.11400
H174        H  0.32406693  0.34641752  0.65814212     0.12600
H175        H  0.32425488  0.29717574  0.60530231     0.11600
H176        H  0.20294183  0.28924862  0.61858327     0.08700
H177        H  0.20516773  0.24152427  0.56632721     0.12000
H178        H  0.29901316  0.25231511  0.56139886     0.13800
C179        C  0.25562300  0.56669930  0.73284814    -0.01700
C180        C  0.28244105  0.58140685  0.71885710    -0.09700
C181        C  0.28340820  0.61230236  0.69120396    -0.18500
C182        C  0.25739941  0.62963947  0.67639627     0.03900
C183        C  0.23035780  0.61629586  0.69249326     0.18100
C184        C  0.22970440  0.58518882  0.72031476    -0.19900
C185        C  0.20400984  0.63335619  0.67995083    -0.21200
C186        C  0.20378348  0.66233251  0.65054221    -0.19700
C187        C  0.22987250  0.67475384  0.63263558     0.19500
C188        C  0.25712869  0.65899120  0.64561751     0.01600
C189        C  0.28277389  0.67235686  0.62625900    -0.14500
C190        C  0.28130893  0.69938158  0.59481126    -0.12200
C191        C  0.25433860  0.71424784  0.58148032     0.01100
C192        C  0.22873384  0.70215475  0.60108650    -0.24400
H193        H  0.30288569  0.56832576  0.72852897     0.09100
H194        H  0.30484426  0.62154263  0.68160372     0.12700
H195        H  0.20882383  0.57475970  0.73150617     0.11400
H196        H  0.18334266  0.62370629  0.69247199     0.12600
H197        H  0.18294795  0.67443978  0.64105712     0.11600
H198        H  0.30428216  0.66187775  0.63411835     0.08700
H199        H  0.30152180  0.70806293  0.58040078     0.12000
H200        H  0.20771775  0.71345659  0.59130408     0.13800
C201        C  0.17714486  0.37771940  0.88133417    -0.01700
C202        C  0.15583955  0.36378508  0.85467329    -0.09700
C203        C  0.13260274  0.34034881  0.86792789    -0.18500
C204        C  0.12957814  0.33037434  0.90872662     0.03900
C205        C  0.15198837  0.34286518  0.93536576     0.18100
C206        C  0.17550490  0.36600564  0.92150000    -0.19900
C207        C  0.15028619  0.33334514  0.97596891    -0.21200
C208        C  0.12639539  0.31257930  0.99095868    -0.19700
C209        C  0.10342240  0.30108377  0.96581906     0.19500
C210        C  0.10477170  0.30954694  0.92424669     0.01600
C211        C  0.08069482  0.29811400  0.90031883    -0.14500
C212        C  0.05594956  0.28061354  0.91716098    -0.12200
C213        C  0.05446368  0.27299248  0.95817354     0.01100
C214        C  0.07862286  0.28236971  0.98222912    -0.24400
H215        H  0.15668112  0.37185276  0.82341669     0.09100
H216        H  0.11705761  0.33121517  0.84556425     0.12700
H217        H  0.19182772  0.37644531  0.94251886     0.11400
H218        H  0.16734414  0.34260915  0.99644237     0.12600
H219        H  0.12557148  0.30625951  0.02264189     0.11600
H220        H  0.07990839  0.30326037  0.86862413     0.08700
H221        H  0.03763597  0.27336014  0.89792678     0.12000
H222        H  0.07754279  0.27687590  0.01407237     0.13800
C223        C  0.44727653  0.27159561  0.95767306    -0.01700
C224        C  0.44590191  0.28015730  0.91686200    -0.09700
C225        C  0.42074981  0.29652314  0.90002721    -0.18500
C226        C  0.39617162  0.30586548  0.92382187     0.03900
C227        C  0.39746984  0.29653228  0.96517708     0.18100
C228        C  0.42264732  0.27878633  0.98150201    -0.19900
C229        C  0.37413887  0.30650681  0.99026584    -0.21200
C230        C  0.35015718  0.32729553  0.97556910    -0.19700
C231        C  0.34859787  0.33788026  0.93523416     0.19500
C232        C  0.37104427  0.32596421  0.90848809     0.01600
C233        C  0.36779563  0.33587449  0.86776839    -0.14500
C234        C  0.34469796  0.35956307  0.85483772    -0.12200
C235        C  0.32383526  0.37400943  0.88181375     0.01100
C236        C  0.32530922  0.36165340  0.92176508    -0.24400
H237        H  0.46458662  0.27456862  0.89781573     0.09100
H238        H  0.42169912  0.30281829  0.86855181     0.12700
H239        H  0.42364026  0.27251593  0.01320860     0.11400
H240        H  0.37489907  0.29938602  0.02178014     0.12600
H241        H  0.33296805  0.33582370  0.99607581     0.11600
H242        H  0.38304762  0.32645540  0.84521963     0.08700
H243        H  0.34384470  0.36774298  0.82360919     0.12000
H244        H  0.30912245  0.37207901  0.94289657     0.13800
C245        C  0.00189269  0.05314975  0.21690390    -0.01700
C246        C  0.47537686  0.07133371  0.20648514    -0.09700
C247        C  0.47416884  0.09962153  0.17620350    -0.18500
C248        C  0.99959479  0.11067852  0.15491274     0.03900
C249        C  0.02644048  0.09214336  0.16551815     0.18100
C250        C  0.02738243  0.06395114  0.19632831    -0.19900
C251        C  0.05220776  0.10161379  0.14511078    -0.21200
C252        C  0.05195915  0.12912357  0.11431256    -0.19700
C253        C  0.02595929  0.14802297  0.10320471     0.19500
C254        C  0.99937313  0.13918678  0.12336200     0.01600
C255        C  0.47377077  0.15919515  0.11089497    -0.14500
C256        C  0.47451730  0.18631288  0.07948745    -0.12200
C257        C  0.00072858  0.19471919  0.05944891     0.01100
C258        C  0.02641930  0.17556281  0.07178454    -0.24400
H259        H  0.45530642  0.06370001  0.22185105     0.09100
H260        H  0.45294617  0.11207453  0.17006870     0.12700
H261        H  0.04800571  0.04997216  0.20387910     0.11400
H262        H  0.07272529  0.08752680  0.15293730     0.12600
H263        H  0.07229160  0.13565326  0.09903459     0.11600
H264        H  0.45276651  0.15448942  0.12466684     0.08700
H265        H  0.45431490  0.20070045  0.07082885     0.12000
H266        H  0.04684346  0.18157978  0.05650381     0.13800
C267        C  0.17840781  0.54819812  0.89290193    -0.01700
C268        C  0.15597929  0.56223627  0.86801172    -0.09700
C269        C  0.13282013  0.58411905  0.88328478    -0.18500
C270        C  0.13111182  0.59283373  0.92437410     0.03900
C271        C  0.15498328  0.58143536  0.94911024     0.18100
C272        C  0.17826730  0.55908246  0.93331939    -0.19900
C273        C  0.15494266  0.59135890  0.98966190    -0.21200
C274        C  0.13114819  0.61090181  0.00648690    -0.19700
C275        C  0.10649555  0.62013518  0.98339844     0.19500
C276        C  0.10621083  0.61142494  0.94190419     0.01600
C277        C  0.08041967  0.61985598  0.92012369    -0.14500
C278        C  0.05566755  0.63482056  0.93901937    -0.12200
C279        C  0.05584063  0.64281037  0.97996619     0.01100
C280        C  0.08161844  0.63648789  0.00183707    -0.24400
H281        H  0.15564571  0.55515091  0.83650353     0.09100
H282        H  0.11642442  0.59331496  0.86211947     0.12700
H283        H  0.19571496  0.54906673  0.95279792     0.11400
H284        H  0.17322402  0.58336563  0.00865229     0.12600
H285        H  0.13161210  0.61759789  0.03809540     0.11600
H286        H  0.07819375  0.61383328  0.88872497     0.08700
H287        H  0.03605898  0.63970301  0.92147188     0.12000
H288        H  0.08180901  0.64227739  0.03365016     0.13800
C289        C  0.44893308  0.63683157  0.98723328    -0.01700
C290        C  0.42665284  0.62351183  0.01248034    -0.09700
C291        C  0.40092957  0.60731237  0.99674230    -0.18500
C292        C  0.39658902  0.60448606  0.95498743     0.03900
C293        C  0.41904980  0.61922431  0.92964230     0.18100
C294        C  0.44487597  0.63492145  0.94589044    -0.19900
C295        C  0.41595038  0.61743262  0.88816105    -0.21200
C296        C  0.39157160  0.59965095  0.87111684    -0.19700
C297        C  0.36963450  0.58339715  0.89514029     0.19500
C298        C  0.37132032  0.58652137  0.93738931     0.01600
C299        C  0.34801597  0.57052381  0.96002387    -0.14500
C300        C  0.32519992  0.54983311  0.94159986    -0.12200
C301        C  0.32477898  0.54454398  0.90012351     0.01100
C302        C  0.34654443  0.56272356  0.87705812    -0.24400
H303        H  0.42950953  0.62456445  0.04455534     0.09100
H304        H  0.38508533  0.59673194  0.01800496     0.12700
H305        H  0.46202803  0.64553777  0.92625469     0.11400
H306        H  0.43284576  0.62904368  0.86873186     0.12600
H307        H  0.39019648  0.59779743  0.83888240     0.11600
H308        H  0.34715254  0.57264444  0.99207469     0.08700
H309        H  0.30848472  0.53651746  0.96014702     0.12000
H310        H  0.34618481  0.55950687  0.84486819     0.13800
C311        C  0.00131332  0.87345184  0.22689147    -0.01700
C312        C  0.47596662  0.85073295  0.22134942    -0.09700
C313        C  0.47574997  0.81867235  0.19503332    -0.18500
C314        C  0.00096866  0.80841349  0.17284694     0.03900
C315        C  0.02656026  0.83173019  0.17832468     0.18100
C316        C  0.02660189  0.86345442  0.20537137    -0.19900
C317        C  0.05188356  0.82368350  0.15631861    -0.21200
C318        C  0.05224564  0.79334483  0.12840413    -0.19700
C319        C  0.02743318  0.76986069  0.12218934     0.19500
C320        C  0.00157435  0.77654138  0.14478654     0.01600
C321        C  0.47740104  0.75128988  0.13790590    -0.14500
C322        C  0.47840117  0.72208458  0.10849022    -0.12200
C323        C  0.00353238  0.71665340  0.08518208     0.01100
C324        C  0.02820616  0.74016250  0.09290548    -0.24400
H325        H  0.45612924  0.85767132  0.23754718     0.09100
H326        H  0.45536630  0.80287674  0.19231111     0.12700
H327        H  0.04633524  0.88090137  0.20907345     0.11400
H328        H  0.07145386  0.84138278  0.16029726     0.12600
H329        H  0.07205810  0.78834737  0.11139266     0.11600
H330        H  0.45729934  0.75356191  0.15450078     0.08700
H331        H  0.45916591  0.70396273  0.10367435     0.12000
H332        H  0.04785262  0.73624476  0.07524345     0.13800
C333        C  0.50337242  0.68833098  0.05136581     0.79900
N334        N  0.52881919  0.67811144  0.03291983    -0.78500
C335        C  0.52840754  0.65486053  0.99987112     0.82300
N336        N  0.00236831  0.64207643  0.98518104    -0.78400
C337        C  0.97691294  0.65139383  0.00365276     0.82400
N338        N  0.97750259  0.67439896  0.03681674    -0.80100
C339        C  0.50096065  0.22227849  0.02490815     0.79900
N340        N  0.97523700  0.23438058  0.00837665    -0.78500
C341        C  0.97509604  0.25773648  0.97543438     0.82300
N342        N  0.50091581  0.26924454  0.95918580    -0.78400
C343        C  0.52678670  0.25824035  0.97573513     0.82400
N344        N  0.52673390  0.23471481  0.00866523    -0.80100
Fe345      Fe  0.78989089  0.46801527  0.80477559     1.65800
Fe346      Fe  0.71532635  0.46958234  0.80284544     1.73200
Fe347      Fe  0.75115912  0.46080724  0.89240806     1.54400
O348        O  0.78382689  0.41788508  0.89337339    -0.82000
O349        O  0.69808633  0.51137616  0.83989687    -0.80300
O350        O  0.80586065  0.41929035  0.83411062    -0.84500
O351        O  0.80887181  0.50526864  0.84602219    -0.79400
O352        O  0.72012065  0.41623761  0.89140116    -0.81200
O353        O  0.73014040  0.51555744  0.76711459    -0.83900
C354        C  0.80364335  0.51702211  0.88124248     0.96800
C355        C  0.80287089  0.40506994  0.86889849     1.04300
O356        O  0.75212484  0.46605359  0.83344748    -1.12900
O357        O  0.72792082  0.42773532  0.76202238    -0.75300
O358        O  0.77645482  0.43052507  0.75936868    -0.78800
O359        O  0.78189406  0.50475963  0.90126762    -0.79500
C360        C  0.75212121  0.41684729  0.74729227     0.95700
O361        O  0.77862420  0.51750138  0.77239054    -0.77500
O362        O  0.69517699  0.42482124  0.83491431    -0.82700
C363        C  0.69998943  0.51967590  0.87664147     0.98400
C364        C  0.69907495  0.40753769  0.86818867     1.04300
O365        O  0.71845385  0.50313399  0.89966712    -0.78300
C366        C  0.75471059  0.53134167  0.75920508     1.02600
C367        C  0.75304537  0.74101153  0.54628903     0.79900
N368        N  0.77828996  0.75403185  0.52920635    -0.78500
C369        C  0.77767678  0.77684144  0.49588564     0.82300
N370        N  0.75147165  0.78645390  0.47947370    -0.78400
C371        C  0.72604197  0.77425339  0.49634306     0.82400
N372        N  0.72685408  0.75168523  0.52993917    -0.80100
C373        C  0.75314036  0.21415009  0.52654280     0.79900
N374        N  0.77924533  0.20116561  0.51192842    -0.78500
C375        C  0.77996831  0.17600421  0.48038737     0.82300
N376        N  0.75450283  0.16362561  0.46373650    -0.78400
C377        C  0.72829232  0.17559713  0.47835226     0.82400
N378        N  0.72775985  0.20092912  0.50978281    -0.80100
Fe379      Fe  0.96527757  0.96845847  0.30332434     1.65800
Fe380      Fe  0.53993568  0.96716628  0.30192543     1.73200
Fe381      Fe  0.50346553  0.97213100  0.39157688     1.54400
O382        O  0.97083380  0.01459205  0.39450621    -0.82000
O383        O  0.55774450  0.92415537  0.33823687    -0.80300
O384        O  0.94821273  0.01508210  0.33560576    -0.84500
O385        O  0.94670411  0.92881576  0.34182494    -0.79400
O386        O  0.53458590  0.01698881  0.39255984    -0.81200
O387        O  0.52588361  0.92272487  0.26438027    -0.83900
C388        C  0.95101567  0.91606411  0.37688405     0.96800
C389        C  0.95130745  0.02782204  0.37101965     1.04300
O390        O  0.50290579  0.96929051  0.33237684    -1.12900
O391        O  0.52711427  0.01036826  0.26170332    -0.75300
O392        O  0.97848471  0.00876034  0.26103291    -0.78800
O393        O  0.97239500  0.92760540  0.39828766    -0.79500
C394        C  0.50262118  0.02236620  0.24846976     0.95700
O395        O  0.97730907  0.92103963  0.26772561    -0.77500
O396        O  0.55930965  0.01060308  0.33567198    -0.82700
C397        C  0.55528458  0.91475832  0.37476652     0.98400
C398        C  0.55558826  0.02647439  0.36956874     1.04300
O399        O  0.53616588  0.93009994  0.39745949    -0.78300
C400        C  0.50145467  0.90770484  0.25467410     1.02600
C401        C  0.93015934  0.05769507  0.38605400    -0.01700
C402        C  0.91119771  0.07695142  0.35952937    -0.09700
C403        C  0.88837197  0.10055764  0.37352174    -0.18500
C404        C  0.88337494  0.10533611  0.41488201     0.03900
C405        C  0.90367183  0.08778542  0.44173060     0.18100
C406        C  0.92679914  0.06437749  0.42719296    -0.19900
C407        C  0.90019033  0.09262802  0.48296476    -0.21200
C408        C  0.87651219  0.11364119  0.49818130    -0.20100
C409        C  0.85539137  0.12973268  0.47260287     0.19500
C410        C  0.85856239  0.12588868  0.43053087     0.01600
C411        C  0.83605231  0.14119999  0.40600037    -0.14500
C412        C  0.81107731  0.15821018  0.42253667    -0.12200
C413        C  0.80794241  0.16165315  0.46387698     0.01100
C414        C  0.83050206  0.14830187  0.48882768    -0.24400
H415        H  0.91353313  0.07299518  0.32762353     0.09100
H416        H  0.87474854  0.11411535  0.35113704     0.12700
H417        H  0.94138037  0.04988785  0.44812263     0.11400
H418        H  0.91567206  0.07957649  0.50364166     0.12600
H419        H  0.87427330  0.11636922  0.53025065     0.11600
H420        H  0.83654435  0.13927215  0.37394428     0.08700
H421        H  0.79385687  0.16840439  0.40279500     0.12000
H422        H  0.82794207  0.15043778  0.52091751     0.13800
C423        C  0.57798441  0.05526809  0.38335689    -0.01700
C424        C  0.57451849  0.07670158  0.41881273    -0.09700
C425        C  0.59738798  0.09998109  0.43388475    -0.18500
C426        C  0.62478316  0.10193668  0.41421574     0.03900
C427        C  0.62791186  0.08058165  0.37797295     0.18100
C428        C  0.60458906  0.05832180  0.36270267    -0.19900
C429        C  0.65466203  0.08027837  0.35773141    -0.21200
C430        C  0.67878686  0.09984982  0.37326686    -0.19700
C431        C  0.67663402  0.12079766  0.40907547     0.19500
C432        C  0.64949894  0.12304778  0.42968944     0.01600
C433        C  0.64857839  0.14575551  0.46512529    -0.14500
C434        C  0.67385850  0.16382571  0.48027975    -0.12200
C435        C  0.70082048  0.15980563  0.46074296     0.01100
C436        C  0.70176648  0.13889216  0.42468364    -0.24400
H437        H  0.55426459  0.07483575  0.43546511     0.09100
H438        H  0.59328306  0.11509087  0.46160191     0.12700
H439        H  0.60779231  0.04169687  0.33541465     0.11400
H440        H  0.65714906  0.06397924  0.33011666     0.12600
H441        H  0.69937819  0.09826679  0.35731888     0.11600
H442        H  0.62871903  0.14981108  0.48193802     0.08700
H443        H  0.67237888  0.18018103  0.50796174     0.12000
H444        H  0.72232141  0.13609588  0.40880154     0.13800
C445        C  0.80513200  0.79214605  0.47808635    -0.01700
C446        C  0.83121823  0.79312307  0.50015178    -0.09700
C447        C  0.85660940  0.80998146  0.48419455    -0.18500
C448        C  0.85675911  0.82625833  0.44531100     0.03900
C449        C  0.83048855  0.82374898  0.42258039     0.18100
C450        C  0.80512541  0.80712652  0.43911371    -0.19900
C451        C  0.82947895  0.83831124  0.38356677    -0.21200
C452        C  0.85386428  0.85611994  0.36675455    -0.19700
C453        C  0.87971239  0.86039253  0.38876860     0.19500
C454        C  0.88172646  0.84546923  0.42829662     0.01600
C455        C  0.90831004  0.85159950  0.44926642    -0.14500
C456        C  0.93134637  0.87310546  0.43221009    -0.12200
C457        C  0.92883854  0.88855118  0.39355727     0.01100
C458        C  0.90319437  0.88090419  0.37174523    -0.24400
H459        H  0.83188704  0.78159943  0.53028880     0.09100
H460        H  0.87572333  0.81000262  0.50308091     0.12700
H461        H  0.78520418  0.80606045  0.42150138     0.11400
H462        H  0.80958689  0.83621975  0.36601646     0.12600
H463        H  0.85226555  0.86747186  0.33657963     0.11600
H464        H  0.91162094  0.84122888  0.47934049     0.08700
H465        H  0.95086481  0.87850971  0.44976154     0.12000
H466        H  0.90079033  0.89261660  0.34179881     0.13800
C467        C  0.69801758  0.78664669  0.47823122    -0.01700
C468        C  0.69525268  0.78757232  0.43666496    -0.09700
C469        C  0.67043892  0.80361484  0.41856850    -0.18500
C470        C  0.64777021  0.82049530  0.44162884     0.03900
C471        C  0.65050015  0.81895211  0.48392070     0.18100
C472        C  0.67517643  0.80129409  0.50177918    -0.19900
C473        C  0.62921597  0.83655579  0.50806666    -0.21200
C474        C  0.60579965  0.85687080  0.49116806    -0.19700
C475        C  0.60273492  0.85946983  0.44966884     0.19500
C476        C  0.62322461  0.84039753  0.42428510     0.01600
C477        C  0.61865926  0.84305670  0.38262357    -0.14500
C478        C  0.59591155  0.86575809  0.36686115    -0.12200
C479        C  0.57665463  0.88629089  0.39189190     0.01100
C480        C  0.57976203  0.88203459  0.43338332    -0.24400
H481        H  0.71269083  0.77633376  0.41797230     0.09100
H482        H  0.67022095  0.80365011  0.38642995     0.12700
H483        H  0.67743411  0.80110002  0.53399700     0.11400
H484        H  0.63113533  0.83557639  0.54028802     0.12600
H485        H  0.59017298  0.87111887  0.51073212     0.11600
H486        H  0.63254346  0.82841074  0.36131597     0.08700
H487        H  0.59384309  0.86793124  0.33473704     0.12000
H488        H  0.56498382  0.89758805  0.45317793     0.13800
C489        C  0.75169939  0.38700331  0.71484301    -0.01700
C490        C  0.72504209  0.37083773  0.70194470    -0.09700
C491        C  0.72414737  0.34259671  0.67169324    -0.18500
C492        C  0.75006818  0.32935646  0.65303529     0.03900
C493        C  0.77708665  0.34590325  0.66601841     0.18100
C494        C  0.77767311  0.37435610  0.69658009    -0.19900
C495        C  0.80339182  0.33392681  0.64845279    -0.21200
C496        C  0.80349891  0.30577645  0.61827044    -0.19700
C497        C  0.77730337  0.28885175  0.60486745     0.19500
C498        C  0.75017704  0.30036624  0.62200776     0.01600
C499        C  0.72438602  0.28234847  0.60727040    -0.14500
C500        C  0.72551345  0.25437050  0.57672853    -0.12200
C501        C  0.75228813  0.24315293  0.55978865     0.01100
C502        C  0.77812307  0.26052643  0.57423804    -0.24400
H503        H  0.70458408  0.37995809  0.71536895     0.09100
H504        H  0.70277139  0.33173538  0.66367755     0.12700
H505        H  0.79846032  0.38662343  0.70614965     0.11400
H506        H  0.82406692  0.34641751  0.65814210     0.12600
H507        H  0.82425486  0.29717574  0.60530227     0.11600
H508        H  0.70294181  0.28924856  0.61858329     0.08700
H509        H  0.70516772  0.24152421  0.56632722     0.12000
H510        H  0.79901315  0.25231512  0.56139880     0.13800
C511        C  0.75562300  0.56669931  0.73284815    -0.01700
C512        C  0.78244104  0.58140686  0.71885710    -0.09700
C513        C  0.78340815  0.61230237  0.69120398    -0.18500
C514        C  0.75739937  0.62963948  0.67639627     0.03900
C515        C  0.73035778  0.61629584  0.69249325     0.18100
C516        C  0.72970442  0.58518883  0.72031474    -0.19900
C517        C  0.70400979  0.63335612  0.67995079    -0.21200
C518        C  0.70378342  0.66233243  0.65054215    -0.19700
C519        C  0.72987244  0.67475381  0.63263555     0.19500
C520        C  0.75712864  0.65899121  0.64561751     0.01600
C521        C  0.78277381  0.67235694  0.62625904    -0.14500
C522        C  0.78130887  0.69938166  0.59481134    -0.12200
C523        C  0.75433856  0.71424789  0.58148036     0.01100
C524        C  0.72873377  0.70215475  0.60108648    -0.24400
H525        H  0.80288567  0.56832579  0.72852897     0.09100
H526        H  0.80484423  0.62154267  0.68160372     0.12700
H527        H  0.70882383  0.57475968  0.73150615     0.11400
H528        H  0.68334262  0.62370619  0.69247195     0.12600
H529        H  0.68294789  0.67443968  0.64105705     0.11600
H530        H  0.80428211  0.66187785  0.63411843     0.08700
H531        H  0.80152177  0.70806305  0.58040091     0.12000
H532        H  0.70771770  0.71345655  0.59130403     0.13800
C533        C  0.67714486  0.37771940  0.88133417    -0.01700
C534        C  0.65583955  0.36378508  0.85467328    -0.09700
C535        C  0.63260273  0.34034885  0.86792789    -0.18500
C536        C  0.62957811  0.33037442  0.90872663     0.03900
C537        C  0.65198835  0.34286525  0.93536577     0.18100
C538        C  0.67550487  0.36600567  0.92149997    -0.19900
C539        C  0.65028617  0.33334521  0.97596892    -0.21200
C540        C  0.62639536  0.31257940  0.99095870    -0.19700
C541        C  0.60342236  0.30108389  0.96581909     0.19500
C542        C  0.60477166  0.30954705  0.92424671     0.01600
C543        C  0.58069477  0.29811414  0.90031880    -0.14500
C544        C  0.55594951  0.28061366  0.91716101    -0.12200
C545        C  0.55446364  0.27299260  0.95817358     0.01100
C546        C  0.57862282  0.28236984  0.98222915    -0.24400
H547        H  0.65668114  0.37185274  0.82341668     0.09100
H548        H  0.61705760  0.33121520  0.84556425     0.12700
H549        H  0.69182771  0.37644535  0.94251886     0.11400
H550        H  0.66734414  0.34260919  0.99644237     0.12600
H551        H  0.62557145  0.30625960  0.02264190     0.11600
H552        H  0.57990832  0.30326052  0.86862415     0.08700
H553        H  0.53763592  0.27336025  0.89792683     0.12000
H554        H  0.57754276  0.27687602  0.01407240     0.13800
C555        C  0.94727656  0.27159563  0.95767301    -0.01700
C556        C  0.94590196  0.28015730  0.91686193    -0.09700
C557        C  0.92074984  0.29652318  0.90002718    -0.18500
C558        C  0.89617166  0.30586554  0.92382185     0.03900
C559        C  0.89746987  0.29653233  0.96517706     0.18100
C560        C  0.92264736  0.27878637  0.98150198    -0.19900
C561        C  0.87413890  0.30650684  0.99026585    -0.21200
C562        C  0.85015720  0.32729556  0.97556908    -0.19700
C563        C  0.84859790  0.33788033  0.93523414     0.19500
C564        C  0.87104431  0.32596429  0.90848807     0.01600
C565        C  0.86779568  0.33587458  0.86776836    -0.14500
C566        C  0.84469798  0.35956315  0.85483772    -0.12200
C567        C  0.82383527  0.37400949  0.88181374     0.01100
C568        C  0.82530923  0.36165348  0.92176509    -0.24400
H569        H  0.96458664  0.27456860  0.89781567     0.09100
H570        H  0.92169913  0.30281832  0.86855178     0.12700
H571        H  0.92364030  0.27251596  0.01320857     0.11400
H572        H  0.87489909  0.29938604  0.02178012     0.12600
H573        H  0.83296806  0.33582372  0.99607577     0.11600
H574        H  0.88304767  0.32645554  0.84521961     0.08700
H575        H  0.84384472  0.36774307  0.82360918     0.12000
H576        H  0.80912246  0.37207905  0.94289656     0.13800
C577        C  0.50189267  0.05314971  0.21690386    -0.01700
C578        C  0.97537685  0.07133382  0.20648526    -0.09700
C579        C  0.97416882  0.09962169  0.17620361    -0.18500
C580        C  0.49959477  0.11067845  0.15491266     0.03900
C581        C  0.52644046  0.09214334  0.16551813     0.18100
C582        C  0.52738241  0.06395114  0.19632830    -0.19900
C583        C  0.55220773  0.10161381  0.14511079    -0.21200
C584        C  0.55195914  0.12912359  0.11431258    -0.19700
C585        C  0.52595927  0.14802297  0.10320470     0.19500
C586        C  0.49937311  0.13918672  0.12336194     0.01600
C587        C  0.97377077  0.15919521  0.11089507    -0.14500
C588        C  0.97451735  0.18631290  0.07948749    -0.12200
C589        C  0.50072856  0.19471921  0.05944892     0.01100
C590        C  0.52641929  0.17556285  0.07178455    -0.24400
H591        H  0.95530644  0.06370016  0.22185120     0.09100
H592        H  0.95294620  0.11207472  0.17006887     0.12700
H593        H  0.54800571  0.04997219  0.20387913     0.11400
H594        H  0.57272527  0.08752684  0.15293734     0.12600
H595        H  0.57229159  0.13565331  0.09903464     0.11600
H596        H  0.95276653  0.15448954  0.12466692     0.08700
H597        H  0.95431494  0.20070050  0.07082888     0.12000
H598        H  0.54684345  0.18157986  0.05650386     0.13800
C599        C  0.67840776  0.54819813  0.89290190    -0.01700
C600        C  0.65597924  0.56223628  0.86801169    -0.09700
C601        C  0.63282010  0.58411908  0.88328478    -0.18500
C602        C  0.63111181  0.59283378  0.92437410     0.03900
C603        C  0.65498327  0.58143538  0.94911023     0.18100
C604        C  0.67826728  0.55908247  0.93331936    -0.19900
C605        C  0.65494267  0.59135890  0.98966191    -0.21200
C606        C  0.63114819  0.61090180  0.00648691    -0.19700
C607        C  0.60649555  0.62013522  0.98339845     0.19500
C608        C  0.60621083  0.61142503  0.94190419     0.01600
C609        C  0.58041970  0.61985620  0.92012367    -0.14500
C610        C  0.55566756  0.63482080  0.93901933    -0.12200
C611        C  0.55584064  0.64281048  0.97996619     0.01100
C612        C  0.58161844  0.63648792  0.00183709    -0.24400
H613        H  0.65564566  0.55515090  0.83650352     0.09100
H614        H  0.61642438  0.59331497  0.86211948     0.12700
H615        H  0.69571493  0.54906672  0.95279788     0.11400
H616        H  0.67322402  0.58336561  0.00865229     0.12600
H617        H  0.63161210  0.61759786  0.03809542     0.11600
H618        H  0.57819380  0.61383359  0.88872493     0.08700
H619        H  0.53605902  0.63970332  0.92147184     0.12000
H620        H  0.58180899  0.64227734  0.03365019     0.13800
C621        C  0.94893305  0.63683171  0.98723324    -0.01700
C622        C  0.92665276  0.62351213  0.01248034    -0.09700
C623        C  0.90092948  0.60731266  0.99674226    -0.18500
C624        C  0.89658901  0.60448618  0.95498738     0.03900
C625        C  0.91904984  0.61922430  0.92964225     0.18100
C626        C  0.94487601  0.63492146  0.94589038    -0.19900
C627        C  0.91595051  0.61743246  0.88816098    -0.21200
C628        C  0.89157174  0.59965071  0.87111682    -0.19700
C629        C  0.86963459  0.58339703  0.89514025     0.19500
C630        C  0.87132032  0.58652144  0.93738927     0.01600
C631        C  0.84801592  0.57052401  0.96002386    -0.14500
C632        C  0.82519987  0.54983326  0.94159983    -0.12200
C633        C  0.82477901  0.54454397  0.90012348     0.01100
C634        C  0.84654454  0.56272338  0.87705810    -0.24400
H635        H  0.92950940  0.62456486  0.04455531     0.09100
H636        H  0.88508520  0.59673238  0.01800490     0.12700
H637        H  0.96202812  0.64553764  0.92625466     0.11400
H638        H  0.93284590  0.62904341  0.86873180     0.12600
H639        H  0.89019667  0.59779704  0.83888236     0.11600
H640        H  0.84715243  0.57264477  0.99207463     0.08700
H641        H  0.80848461  0.53651774  0.96014696     0.12000
H642        H  0.84618498  0.55950655  0.84486817     0.13800
C643        C  0.50131335  0.87345177  0.22689154    -0.01700
C644        C  0.97596658  0.85073304  0.22134931    -0.09700
C645        C  0.97574992  0.81867244  0.19503318    -0.18500
C646        C  0.50096868  0.80841340  0.17284703     0.03900
C647        C  0.52656028  0.83173011  0.17832474     0.18100
C648        C  0.52660191  0.86345433  0.20537143    -0.19900
C649        C  0.55188355  0.82368345  0.15631863    -0.21200
C650        C  0.55224560  0.79334480  0.12840415    -0.19700
C651        C  0.52743317  0.76986064  0.12218937     0.19500
C652        C  0.50157435  0.77654131  0.14478661     0.01600
C653        C  0.97740103  0.75128994  0.13790583    -0.14500
C654        C  0.97840118  0.72208463  0.10849016    -0.12200
C655        C  0.50353236  0.71665336  0.08518212     0.01100
C656        C  0.52820613  0.74016247  0.09290550    -0.24400
H657        H  0.95612919  0.85767142  0.23754707     0.09100
H658        H  0.95536625  0.80287687  0.19231094     0.12700
H659        H  0.54633527  0.88090130  0.20907350     0.11400
H660        H  0.57145386  0.84138273  0.16029726     0.12600
H661        H  0.57205806  0.78834736  0.11139263     0.11600
H662        H  0.95729933  0.75356197  0.15450069     0.08700
H663        H  0.95916592  0.70396279  0.10367429     0.12000
H664        H  0.54785259  0.73624474  0.07524346     0.13800
loop_ 
_geom_bond_atom_site_label_1 
_geom_bond_atom_site_label_2 
_geom_bond_distance 
_geom_bond_site_symmetry_2 
_ccdc_geom_bond_type 
C1            N2   1.363       .  A
C1          N338   1.362   1_455  A
C1          C323   1.485       .  S
N2            C3   1.359   1_554  A
C3          N336   1.357       .  A
C3          C279   1.478       .  S
N4            C5   1.356   1_556  A
N4          C335   1.357       .  A
C5            N6   1.358       .  A
C5          C289   1.475   1_554  S
N6          C333   1.362       .  A
C7           N12   1.364       .  A
C7          N340   1.362   1_455  A
C7          C257   1.486       .  S
N8            C9   1.358   1_554  A
N8          C339   1.362       .  A
C9          N342   1.357       .  A
C9          C223   1.479       .  S
N10          C11   1.357       .  A
N10         C341   1.357   1_455  A
C11          N12   1.361   1_556  A
C11         C213   1.482       .  S
Fe13         O29   2.061       .  S
Fe13         O19   2.062       .  S
Fe13         O26   2.074       .  S
Fe13         O18   2.054       .  S
Fe13         O24   1.977       .  S
Fe14         O17   2.043       .  S
Fe14         O21   2.077       .  S
Fe14         O25   2.054       .  S
Fe14         O30   2.073       .  S
Fe14         O24   1.972       .  S
Fe15         O33   2.086       .  S
Fe15         O20   2.070       .  S
Fe15         O27   2.066       .  S
Fe15         O16   2.084       .  S
Fe15         O24   1.985       .  S
O16          C23   1.273       .  A
O17          C31   1.266       .  A
O18          C23   1.269       .  A
O19          C22   1.269       .  A
O20          C32   1.270       .  A
O21          C34   1.271       .  A
C22         C301   1.483       .  S
C22          O27   1.269       .  A
C23         C235   1.487       .  S
O25          C28   1.267       .  A
O26          C28   1.270       .  A
C28         C157   1.485       .  S
O29          C34   1.268       .  A
O30          C32   1.272       .  A
C31         C267   1.485       .  S
C31          O33   1.272       .  A
C32         C201   1.489       .  S
C34         C179   1.488       .  S
C35          N36   1.361       .  A
C35          N40   1.364       .  A
C35         C191   1.488       .  S
N36          C37   1.358       .  A
C37          N38   1.357       .  A
C37         C113   1.483       .  S
N38          C39   1.357       .  A
C39          N40   1.361       .  A
C39         C135   1.477       .  S
C41          N42   1.363       .  A
C41          N46   1.363       .  A
C41         C169   1.486       .  S
N42          C43   1.359       .  A
C43          N44   1.356       .  A
C43          C81   1.476       .  S
N44          C45   1.357       .  A
C45          N46   1.359       .  A
C45         C103   1.485       .  S
Fe47         O63   2.076       .  S
Fe47         O53   2.046       .  S
Fe47         O60   2.058   1_565  S
Fe47         O52   2.068   1_565  S
Fe47        O390   1.975       .  S
Fe48         O51   2.064       .  S
Fe48         O55   2.063       .  S
Fe48         O59   2.073   1_565  S
Fe48         O64   2.055   1_565  S
Fe48         O58   1.978       .  S
Fe49         O67   2.073       .  S
Fe49         O54   2.080   1_565  S
Fe49        O393   2.082   1_455  S
Fe49        O382   2.074   1_465  S
Fe49         O58   1.987       .  S
O50        Fe381   2.074   1_545  S
O50          C57   1.271       .  A
O51          C65   1.270       .  A
O52          C57   1.271       .  A
O53          C56   1.267       .  A
O54          C66   1.272       .  A
O55          C68   1.268       .  A
C56         C125   1.485       .  S
C56          O61   1.272       .  A
C57          C69   1.488       .  S
O58        Fe379   1.975   1_455  S
O59          C62   1.270       .  A
O60         C394   1.267       .  A
O61        Fe381   2.082       .  S
C62         C245   1.485       .  S
C62         O392   1.267   1_455  A
O63         C400   1.271       .  A
O64          C66   1.269       .  A
C65         C147   1.487       .  S
C65          O67   1.271       .  A
C66          C91   1.486       .  S
C68         C311   1.488       .  S
C68         O395   1.271   1_455  A
C69          C70   1.401       .  A
C69          C74   1.406       .  A
C70          C71   1.396       .  A
C70          H83   1.083       .  S
C71          C72   1.415       .  A
C71          H84   1.077       .  S
C72          C78   1.431       .  A
C72          C73   1.421       .  A
C73          C75   1.401       .  A
C73          C74   1.409       .  A
C74          H85   1.084       .  S
C75          C76   1.393       .  A
C75          H86   1.084       .  S
C76          C77   1.400       .  A
C76          H87   1.084       .  S
C77          C78   1.424       .  A
C77          C82   1.410       .  A
C78          C79   1.414       .  A
C79          C80   1.394       .  A
C79          H88   1.077       .  S
C80          C81   1.398       .  A
C80          H89   1.084       .  S
C81          C82   1.401       .  A
C82          H90   1.085       .  S
C91          C92   1.402       .  A
C91          C96   1.403       .  A
C92          C93   1.402       .  A
C92         H105   1.083       .  S
C93          C94   1.417       .  A
C93         H106   1.078       .  S
C94         C100   1.432       .  A
C94          C95   1.422       .  A
C95          C97   1.399       .  A
C95          C96   1.401       .  A
C96         H107   1.084       .  S
C97          C98   1.386       .  A
C97         H108   1.084       .  S
C98          C99   1.398       .  A
C98         H109   1.084       .  S
C99         C100   1.422       .  A
C99         C104   1.402       .  A
C100        C101   1.416       .  A
C101        C102   1.401       .  A
C101        H110   1.078       .  S
C102        C103   1.403       .  A
C102        H111   1.083       .  S
C103        C104   1.402       .  A
C104        H112   1.084       .  S
C113        C114   1.402       .  A
C113        C118   1.401       .  A
C114        C115   1.399       .  A
C114        H127   1.083       .  S
C115        C116   1.415       .  A
C115        H128   1.078       .  S
C116        C122   1.432       .  A
C116        C117   1.423       .  A
C117        C119   1.398       .  A
C117        C118   1.402       .  A
C118        H129   1.085       .  S
C119        C120   1.386       .  A
C119        H130   1.084       .  S
C120        C121   1.399       .  A
C120        H131   1.084       .  S
C121        C122   1.421       .  A
C121        C126   1.399       .  A
C122        C123   1.417       .  A
C123        C124   1.402       .  A
C123        H132   1.078       .  S
C124        C125   1.401       .  A
C124        H133   1.083       .  S
C125        C126   1.404       .  A
C126        H134   1.084       .  S
C135        C136   1.399       .  A
C135        C140   1.401       .  A
C136        C137   1.395       .  A
C136        H149   1.084       .  S
C137        C138   1.414       .  A
C137        H150   1.077       .  S
C138        C144   1.431       .  A
C138        C139   1.424       .  A
C139        C141   1.400       .  A
C139        C140   1.409       .  A
C140        H151   1.085       .  S
C141        C142   1.392       .  A
C141        H152   1.084       .  S
C142        C143   1.401       .  A
C142        H153   1.084       .  S
C143        C144   1.422       .  A
C143        C148   1.408       .  A
C144        C145   1.414       .  A
C145        C146   1.396       .  A
C145        H154   1.077       .  S
C146        C147   1.402       .  A
C146        H155   1.083       .  S
C147        C148   1.405       .  A
C148        H156   1.084       .  S
C157        C158   1.402       .  A
C157        C162   1.403       .  A
C158        C159   1.395       .  A
C158        H171   1.083       .  S
C159        C160   1.413       .  A
C159        H172   1.077       .  S
C160        C166   1.430       .  A
C160        C161   1.423       .  A
C161        C163   1.399       .  A
C161        C162   1.407       .  A
C162        H173   1.084       .  S
C163        C164   1.390       .  A
C163        H174   1.084       .  S
C164        C165   1.400       .  A
C164        H175   1.084       .  S
C165        C166   1.422       .  A
C165        C170   1.406       .  A
C166        C167   1.415       .  A
C167        C168   1.396       .  A
C167        H176   1.077       .  S
C168        C169   1.402       .  A
C168        H177   1.083       .  S
C169        C170   1.404       .  A
C170        H178   1.084       .  S
C179        C180   1.403       .  A
C179        C184   1.404       .  A
C180        C181   1.398       .  A
C180        H193   1.083       .  S
C181        C182   1.415       .  A
C181        H194   1.077       .  S
C182        C188   1.432       .  A
C182        C183   1.422       .  A
C183        C185   1.400       .  A
C183        C184   1.407       .  A
C184        H195   1.084       .  S
C185        C186   1.390       .  A
C185        H196   1.084       .  S
C186        C187   1.399       .  A
C186        H197   1.084       .  S
C187        C188   1.423       .  A
C187        C192   1.407       .  A
C188        C189   1.414       .  A
C189        C190   1.397       .  A
C189        H198   1.077       .  S
C190        C191   1.404       .  A
C190        H199   1.083       .  S
C191        C192   1.403       .  A
C192        H200   1.084       .  S
C201        C202   1.402       .  A
C201        C206   1.405       .  A
C202        C203   1.398       .  A
C202        H215   1.083       .  S
C203        C204   1.415       .  A
C203        H216   1.077       .  S
C204        C210   1.432       .  A
C204        C205   1.422       .  A
C205        C207   1.401       .  A
C205        C206   1.408       .  A
C206        H217   1.084       .  S
C207        C208   1.392       .  A
C207        H218   1.084       .  S
C208        C209   1.400       .  A
C208        H219   1.084   1_556  S
C209        C210   1.424       .  A
C209        C214   1.410       .  A
C210        C211   1.414       .  A
C211        C212   1.396       .  A
C211        H220   1.077       .  S
C212        C213   1.400       .  A
C212        H221   1.084       .  S
C213        C214   1.402       .  A
C214        H222   1.084   1_556  S
C223        C224   1.399       .  A
C223        C228   1.402       .  A
C224        C225   1.394       .  A
C224        H237   1.084       .  S
C225        C226   1.414       .  A
C225        H238   1.077       .  S
C226        C232   1.430       .  A
C226        C227   1.423       .  A
C227        C229   1.400       .  A
C227        C228   1.408       .  A
C228        H239   1.084   1_556  S
C229        C230   1.392       .  A
C229        H240   1.084   1_556  S
C230        C231   1.400       .  A
C230        H241   1.084       .  S
C231        C232   1.422       .  A
C231        C236   1.408       .  A
C232        C233   1.413       .  A
C233        C234   1.394       .  A
C233        H242   1.077       .  S
C234        C235   1.403       .  A
C234        H243   1.083       .  S
C235        C236   1.404       .  A
C236        H244   1.084       .  S
C245        C250   1.402       .  A
C245        C578   1.403   1_455  A
C246        C247   1.396       .  A
C246        C577   1.403       .  A
C246        H259   1.083       .  S
C247        C580   1.414       .  A
C247        H260   1.077       .  S
C248        C254   1.431       .  A
C248        C249   1.423   1_655  A
C248        C579   1.414       .  A
C249        C251   1.399       .  A
C249        C250   1.406       .  A
C250        H261   1.084       .  S
C251        C252   1.390       .  A
C251        H262   1.084       .  S
C252        C253   1.400       .  A
C252        H263   1.084       .  S
C253        C254   1.422   1_455  A
C253        C258   1.406       .  A
C254        C587   1.415       .  A
C255        C256   1.397       .  A
C255        C586   1.415       .  A
C255        H264   1.077       .  S
C256        C589   1.403       .  A
C256        H265   1.083       .  S
C257        C258   1.403       .  A
C257        C588   1.403   1_455  A
C258        H266   1.084       .  S
C267        C268   1.403       .  A
C267        C272   1.404       .  A
C268        C269   1.391       .  A
C268        H281   1.083       .  S
C269        C270   1.411       .  A
C269        H282   1.077       .  S
C270        C276   1.428       .  A
C270        C271   1.422       .  A
C271        C273   1.400       .  A
C271        C272   1.410       .  A
C272        H283   1.084       .  S
C273        C274   1.393   1_556  A
C273        H284   1.084   1_556  S
C274        C275   1.401   1_554  A
C274        H285   1.084       .  S
C275        C276   1.422       .  A
C275        C280   1.408   1_556  A
C276        C277   1.414       .  A
C277        C278   1.393       .  A
C277        H286   1.077       .  S
C278        C279   1.399       .  A
C278        H287   1.084       .  S
C279        C280   1.403   1_556  A
C280        H288   1.084       .  S
C289        C290   1.399   1_556  A
C289        C294   1.399       .  A
C290        C291   1.399   1_554  A
C290        H303   1.083       .  S
C291        C292   1.417       .  A
C291        H304   1.077   1_556  S
C292        C298   1.431       .  A
C292        C293   1.423       .  A
C293        C295   1.399       .  A
C293        C294   1.403       .  A
C294        H305   1.085       .  S
C295        C296   1.388       .  A
C295        H306   1.084       .  S
C296        C297   1.399       .  A
C296        H307   1.084       .  S
C297        C298   1.422       .  A
C297        C302   1.403       .  A
C298        C299   1.415       .  A
C299        C300   1.398       .  A
C299        H308   1.077       .  S
C300        C301   1.402       .  A
C300        H309   1.083       .  S
C301        C302   1.402       .  A
C302        H310   1.085       .  S
C311        C316   1.405       .  A
C311        C644   1.402   1_455  A
C312        C313   1.399       .  A
C312        C643   1.402       .  A
C312        H325   1.083       .  S
C313        C646   1.416       .  A
C313        H326   1.077       .  S
C314        C320   1.432       .  A
C314        C315   1.422       .  A
C314        C645   1.416   1_455  A
C315        C317   1.400       .  A
C315        C316   1.406       .  A
C316        H327   1.084       .  S
C317        C318   1.390       .  A
C317        H328   1.084       .  S
C318        C319   1.399       .  A
C318        H329   1.084       .  S
C319        C320   1.423       .  A
C319        C324   1.406       .  A
C320        C653   1.415   1_455  A
C321        C322   1.398       .  A
C321        C652   1.415       .  A
C321        H330   1.077       .  S
C322        C655   1.402       .  A
C322        H331   1.083       .  S
C323        C324   1.403       .  A
C323        C654   1.402   1_455  A
C324        H332   1.084       .  S
C333        N334   1.363       .  A
C333        C655   1.485       .  S
N334        C335   1.359   1_554  A
C335        C611   1.478       .  S
N336        C337   1.356   1_456  A
C337        N338   1.358       .  A
C337        C621   1.475   1_554  S
C339        N344   1.364       .  A
C339        C589   1.486       .  S
N340        C341   1.358   1_554  A
C341        C555   1.479       .  S
N342        C343   1.357       .  A
C343        N344   1.361   1_556  A
C343        C545   1.482       .  S
Fe345       O361   2.061       .  S
Fe345       O351   2.062       .  S
Fe345       O358   2.074       .  S
Fe345       O350   2.054       .  S
Fe345       O356   1.977       .  S
Fe346       O349   2.043       .  S
Fe346       O353   2.077       .  S
Fe346       O357   2.054       .  S
Fe346       O362   2.073       .  S
Fe346       O356   1.972       .  S
Fe347       O365   2.086       .  S
Fe347       O352   2.070       .  S
Fe347       O359   2.066       .  S
Fe347       O348   2.084       .  S
Fe347       O356   1.985       .  S
O348        C355   1.273       .  A
O349        C363   1.266       .  A
O350        C355   1.269       .  A
O351        C354   1.269       .  A
O352        C364   1.270       .  A
O353        C366   1.271       .  A
C354        C633   1.483       .  S
C354        O359   1.269       .  A
C355        C567   1.487       .  S
O357        C360   1.267       .  A
O358        C360   1.270       .  A
C360        C489   1.485       .  S
O361        C366   1.268       .  A
O362        C364   1.272       .  A
C363        C599   1.485       .  S
C363        O365   1.272       .  A
C364        C533   1.489       .  S
C366        C511   1.488       .  S
C367        N368   1.361       .  A
C367        N372   1.364       .  A
C367        C523   1.488       .  S
N368        C369   1.358       .  A
C369        N370   1.357       .  A
C369        C445   1.483       .  S
N370        C371   1.357       .  A
C371        N372   1.361       .  A
C371        C467   1.477       .  S
C373        N374   1.363       .  A
C373        N378   1.363       .  A
C373        C501   1.486       .  S
N374        C375   1.359       .  A
C375        N376   1.356       .  A
C375        C413   1.476       .  S
N376        C377   1.357       .  A
C377        N378   1.359       .  A
C377        C435   1.485       .  S
Fe379       O395   2.076       .  S
Fe379       O385   2.046       .  S
Fe379       O392   2.058   1_565  S
Fe379       O384   2.068   1_565  S
Fe380       O383   2.064       .  S
Fe380       O387   2.063       .  S
Fe380       O391   2.073   1_565  S
Fe380       O396   2.055   1_565  S
Fe380       O390   1.978       .  S
Fe381       O399   2.073       .  S
Fe381       O386   2.080   1_565  S
Fe381       O390   1.987       .  S
O382        C389   1.271       .  A
O383        C397   1.270       .  A
O384        C389   1.271       .  A
O385        C388   1.267       .  A
O386        C398   1.272       .  A
O387        C400   1.268       .  A
C388        C457   1.485       .  S
C388        O393   1.272       .  A
C389        C401   1.488       .  S
O391        C394   1.270       .  A
C394        C577   1.485       .  S
O396        C398   1.269       .  A
C397        C479   1.487       .  S
C397        O399   1.271       .  A
C398        C423   1.486       .  S
C400        C643   1.488       .  S
C401        C402   1.401       .  A
C401        C406   1.406       .  A
C402        C403   1.396       .  A
C402        H415   1.083       .  S
C403        C404   1.415       .  A
C403        H416   1.077       .  S
C404        C410   1.431       .  A
C404        C405   1.421       .  A
C405        C407   1.401       .  A
C405        C406   1.409       .  A
C406        H417   1.084       .  S
C407        C408   1.393       .  A
C407        H418   1.084       .  S
C408        C409   1.400       .  A
C408        H419   1.084       .  S
C409        C410   1.424       .  A
C409        C414   1.410       .  A
C410        C411   1.414       .  A
C411        C412   1.394       .  A
C411        H420   1.077       .  S
C412        C413   1.398       .  A
C412        H421   1.084       .  S
C413        C414   1.401       .  A
C414        H422   1.085       .  S
C423        C424   1.402       .  A
C423        C428   1.403       .  A
C424        C425   1.402       .  A
C424        H437   1.083       .  S
C425        C426   1.417       .  A
C425        H438   1.078       .  S
C426        C432   1.432       .  A
C426        C427   1.422       .  A
C427        C429   1.399       .  A
C427        C428   1.401       .  A
C428        H439   1.084       .  S
C429        C430   1.386       .  A
C429        H440   1.084       .  S
C430        C431   1.398       .  A
C430        H441   1.084       .  S
C431        C432   1.422       .  A
C431        C436   1.402       .  A
C432        C433   1.416       .  A
C433        C434   1.401       .  A
C433        H442   1.078       .  S
C434        C435   1.403       .  A
C434        H443   1.083       .  S
C435        C436   1.402       .  A
C436        H444   1.084       .  S
C445        C446   1.402       .  A
C445        C450   1.401       .  A
C446        C447   1.399       .  A
C446        H459   1.083       .  S
C447        C448   1.415       .  A
C447        H460   1.078       .  S
C448        C454   1.432       .  A
C448        C449   1.423       .  A
C449        C451   1.398       .  A
C449        C450   1.402       .  A
C450        H461   1.085       .  S
C451        C452   1.386       .  A
C451        H462   1.084       .  S
C452        C453   1.399       .  A
C452        H463   1.084       .  S
C453        C454   1.421       .  A
C453        C458   1.399       .  A
C454        C455   1.417       .  A
C455        C456   1.402       .  A
C455        H464   1.078       .  S
C456        C457   1.401       .  A
C456        H465   1.083       .  S
C457        C458   1.404       .  A
C458        H466   1.084       .  S
C467        C468   1.399       .  A
C467        C472   1.401       .  A
C468        C469   1.395       .  A
C468        H481   1.084       .  S
C469        C470   1.414       .  A
C469        H482   1.077       .  S
C470        C476   1.431       .  A
C470        C471   1.424       .  A
C471        C473   1.400       .  A
C471        C472   1.409       .  A
C472        H483   1.085       .  S
C473        C474   1.392       .  A
C473        H484   1.084       .  S
C474        C475   1.401       .  A
C474        H485   1.084       .  S
C475        C476   1.422       .  A
C475        C480   1.408       .  A
C476        C477   1.414       .  A
C477        C478   1.396       .  A
C477        H486   1.077       .  S
C478        C479   1.402       .  A
C478        H487   1.083       .  S
C479        C480   1.405       .  A
C480        H488   1.084       .  S
C489        C490   1.402       .  A
C489        C494   1.403       .  A
C490        C491   1.395       .  A
C490        H503   1.083       .  S
C491        C492   1.413       .  A
C491        H504   1.077       .  S
C492        C498   1.430       .  A
C492        C493   1.423       .  A
C493        C495   1.399       .  A
C493        C494   1.407       .  A
C494        H505   1.084       .  S
C495        C496   1.390       .  A
C495        H506   1.084       .  S
C496        C497   1.400       .  A
C496        H507   1.084       .  S
C497        C498   1.422       .  A
C497        C502   1.406       .  A
C498        C499   1.415       .  A
C499        C500   1.396       .  A
C499        H508   1.077       .  S
C500        C501   1.402       .  A
C500        H509   1.083       .  S
C501        C502   1.404       .  A
C502        H510   1.084       .  S
C511        C512   1.403       .  A
C511        C516   1.404       .  A
C512        C513   1.398       .  A
C512        H525   1.083       .  S
C513        C514   1.415       .  A
C513        H526   1.077       .  S
C514        C520   1.432       .  A
C514        C515   1.422       .  A
C515        C517   1.400       .  A
C515        C516   1.407       .  A
C516        H527   1.084       .  S
C517        C518   1.390       .  A
C517        H528   1.084       .  S
C518        C519   1.399       .  A
C518        H529   1.084       .  S
C519        C520   1.423       .  A
C519        C524   1.407       .  A
C520        C521   1.414       .  A
C521        C522   1.397       .  A
C521        H530   1.077       .  S
C522        C523   1.404       .  A
C522        H531   1.083       .  S
C523        C524   1.403       .  A
C524        H532   1.084       .  S
C533        C534   1.402       .  A
C533        C538   1.405       .  A
C534        C535   1.398       .  A
C534        H547   1.083       .  S
C535        C536   1.415       .  A
C535        H548   1.077       .  S
C536        C542   1.432       .  A
C536        C537   1.422       .  A
C537        C539   1.401       .  A
C537        C538   1.408       .  A
C538        H549   1.084       .  S
C539        C540   1.392       .  A
C539        H550   1.084       .  S
C540        C541   1.400       .  A
C540        H551   1.084   1_556  S
C541        C542   1.424       .  A
C541        C546   1.410       .  A
C542        C543   1.414       .  A
C543        C544   1.396       .  A
C543        H552   1.077       .  S
C544        C545   1.400       .  A
C544        H553   1.084       .  S
C545        C546   1.402       .  A
C546        H554   1.084   1_556  S
C555        C556   1.399       .  A
C555        C560   1.402       .  A
C556        C557   1.394       .  A
C556        H569   1.084       .  S
C557        C558   1.414       .  A
C557        H570   1.077       .  S
C558        C564   1.430       .  A
C558        C559   1.423       .  A
C559        C561   1.400       .  A
C559        C560   1.408       .  A
C560        H571   1.084   1_556  S
C561        C562   1.392       .  A
C561        H572   1.084   1_556  S
C562        C563   1.400       .  A
C562        H573   1.084       .  S
C563        C564   1.422       .  A
C563        C568   1.408       .  A
C564        C565   1.413       .  A
C565        C566   1.394       .  A
C565        H574   1.077       .  S
C566        C567   1.403       .  A
C566        H575   1.083       .  S
C567        C568   1.404       .  A
C568        H576   1.084       .  S
C577        C582   1.402       .  A
C578        C579   1.396       .  A
C578        H591   1.083       .  S
C579        H592   1.077       .  S
C580        C586   1.431       .  A
C580        C581   1.423       .  A
C581        C583   1.399       .  A
C581        C582   1.406       .  A
C582        H593   1.084       .  S
C583        C584   1.390       .  A
C583        H594   1.084       .  S
C584        C585   1.400       .  A
C584        H595   1.084       .  S
C585        C586   1.422       .  A
C585        C590   1.406       .  A
C587        C588   1.397       .  A
C587        H596   1.077       .  S
C588        H597   1.083       .  S
C589        C590   1.403       .  A
C590        H598   1.084       .  S
C599        C600   1.403       .  A
C599        C604   1.404       .  A
C600        C601   1.391       .  A
C600        H613   1.083       .  S
C601        C602   1.411       .  A
C601        H614   1.077       .  S
C602        C608   1.428       .  A
C602        C603   1.422       .  A
C603        C605   1.400       .  A
C603        C604   1.410       .  A
C604        H615   1.084       .  S
C605        C606   1.393   1_556  A
C605        H616   1.084   1_556  S
C606        C607   1.401   1_554  A
C606        H617   1.084       .  S
C607        C608   1.422       .  A
C607        C612   1.408   1_556  A
C608        C609   1.414       .  A
C609        C610   1.393       .  A
C609        H618   1.077       .  S
C610        C611   1.399       .  A
C610        H619   1.084       .  S
C611        C612   1.403   1_556  A
C612        H620   1.084       .  S
C621        C622   1.399   1_556  A
C621        C626   1.399       .  A
C622        C623   1.399   1_554  A
C622        H635   1.083       .  S
C623        C624   1.417       .  A
C623        H636   1.077   1_556  S
C624        C630   1.431       .  A
C624        C625   1.423       .  A
C625        C627   1.399       .  A
C625        C626   1.403       .  A
C626        H637   1.085       .  S
C627        C628   1.388       .  A
C627        H638   1.084       .  S
C628        C629   1.399       .  A
C628        H639   1.084       .  S
C629        C630   1.422       .  A
C629        C634   1.403       .  A
C630        C631   1.415       .  A
C631        C632   1.398       .  A
C631        H640   1.077       .  S
C632        C633   1.402       .  A
C632        H641   1.083       .  S
C633        C634   1.402       .  A
C634        H642   1.085       .  S
C643        C648   1.405       .  A
C644        C645   1.399       .  A
C644        H657   1.083       .  S
C645        H658   1.077       .  S
C646        C652   1.432       .  A
C646        C647   1.422       .  A
C647        C649   1.400       .  A
C647        C648   1.406       .  A
C648        H659   1.084       .  S
C649        C650   1.390       .  A
C649        H660   1.084       .  S
C650        C651   1.399       .  A
C650        H661   1.084       .  S
C651        C652   1.423       .  A
C651        C656   1.406       .  A
C653        C654   1.398       .  A
C653        H662   1.077       .  S
C654        H663   1.083       .  S
C655        C656   1.403       .  A
C656        H664   1.084       .  S
