geometry optimzed in LAMMPS
_audit_creation_date              2020-12-01 
_audit_creation_method            'lammps2cif' 
_symmetry_space_group_name_H-M    'P1' 
_symmetry_Int_Tables_number       1 
_symmetry_cell_setting            triclinic 
loop_ 
_symmetry_equiv_pos_as_xyz 
  x,y,z 
_cell_length_a                    31.64990246 
_cell_length_b                    31.65160006500355 
_cell_length_c                    31.20936457215947 
_cell_angle_alpha                 89.99200340668838 
_cell_angle_beta                  89.84390140962451 
_cell_angle_gamma                 89.91101242290924 
loop_ 
_atom_site_label 
_atom_site_type_symbol 
_atom_site_fract_x 
_atom_site_fract_y 
_atom_site_fract_z 
_atom_site_charge 
C1          C  0.51800298  0.57413563  0.28559504     0.79800
N2          N  0.55331406  0.55631475  0.30268260    -0.78500
C3          C  0.56928210  0.51946267  0.28729606     0.82200
N4          N  0.54860079  0.49972132  0.25493437    -0.78500
C5          C  0.51380922  0.51739014  0.23688195     0.82300
N6          N  0.49842161  0.55441913  0.25241692    -0.80200
C7          C  0.36927369  0.30048444  0.94887867     0.79800
N8          N  0.38248811  0.31989632  0.98522628    -0.78500
C9          C  0.36441115  0.35670978  0.99789476     0.82200
N10         N  0.33353851  0.37452922  0.97377322    -0.78500
C11         C  0.31934712  0.35517103  0.93779700     0.82300
N12         N  0.33770937  0.31836076  0.92556814    -0.80200
C13         C  0.62264731  0.49639160  0.99508003     0.79800
N14         N  0.58287477  0.48490625  0.00643146    -0.78500
C15         C  0.56343263  0.50303926  0.04081854     0.82200
N16         N  0.58395662  0.53285929  0.06414091    -0.78500
C17         C  0.62365109  0.54449426  0.05272262     0.82300
N18         N  0.64261898  0.52614789  0.01858696    -0.80200
C19         C  0.38654182  0.61745728  0.00367136     0.79800
N20         N  0.35570171  0.63554387  0.02781857    -0.78500
C21         C  0.34317675  0.61793008  0.06550613     0.82200
N22         N  0.36203399  0.58147376  0.07960599    -0.78500
C23         C  0.39287279  0.56297065  0.05515854     0.82300
N24         N  0.40455170  0.58124400  0.01764467    -0.80200
C25         C  0.25390977  0.36403210  0.24765676     0.79800
N26         N  0.29196830  0.37856146  0.23438455    -0.78500
C27         C  0.31218952  0.36103146  0.20048061     0.82200
N28         N  0.29448535  0.32782079  0.17973370    -0.78500
C29         C  0.25694802  0.31172898  0.19338145     0.82300
N30         N  0.23674491  0.33021144  0.22717926    -0.80200
C31         C  0.48237508  0.25288960  0.23170454     0.79800
N32         N  0.46692436  0.29064793  0.21919532    -0.78500
C33         C  0.48018970  0.30928234  0.18242534     0.82200
N34         N  0.51023387  0.28975690  0.15760294    -0.78500
C35         C  0.52631559  0.25145037  0.17038103     0.82300
N36         N  0.51189685  0.23356061  0.20720140    -0.80200
O37         O  0.38906899  0.42055226  0.02585020    -0.81300
O38         O  0.47544914  0.50860108  0.17184331    -0.66000
O39         O  0.45276689  0.42838748  0.08433076    -1.12600
C40         C  0.35190613  0.37987294  0.18575346     1.05600
O41         O  0.48224790  0.45393469  0.21544096    -0.79200
O42         O  0.45400452  0.37441805  0.20406882    -0.66800
Ni43       Ni  0.44503894  0.44364995  0.02679716     1.34900
C44         C  0.46061431  0.35042644  0.17221238     0.84300
O45         O  0.50901807  0.49527032  0.09242982    -0.79800
O46         O  0.50086499  0.46668622  0.02637820    -0.90000
C47         C  0.48898355  0.49254287  0.20654522     0.83900
O48         O  0.42193307  0.49874670  0.03397533    -0.68200
O49         O  0.37302809  0.40087204  0.21339921    -0.87500
C50         C  0.41321121  0.52215836  0.06574768     0.84700
C51         C  0.52172419  0.48788072  0.05403741     1.06300
H52         H  0.39449873  0.46221704  0.15584912     0.38100
O53         O  0.41864730  0.44349604  0.15557599    -1.10200
O54         O  0.44729735  0.35869888  0.13464730    -0.66800
Ni55       Ni  0.40770351  0.40122525  0.11383544     1.26300
O56         O  0.42372631  0.51280637  0.10398603    -0.67100
O57         O  0.36273077  0.37552608  0.14642815    -0.79400
C58         C  0.38352772  0.38134224  0.03215645     0.84100
O59         O  0.39579385  0.36422893  0.06684019    -0.66500
Ni60       Ni  0.42743200  0.42764436  0.21295795     1.27400
Ni61       Ni  0.46354735  0.47070695  0.12554491     1.26100
H62         H  0.47688583  0.40964573  0.08450681     0.38600
C63         C  0.50194296  0.11511844  0.73509435     0.79800
N64         N  0.53283992  0.13086018  0.70958331    -0.78500
C65         C  0.54032348  0.11430412  0.67008545     0.82200
N66         N  0.51633238  0.08112399  0.65573248    -0.78500
C67         C  0.48529173  0.06506749  0.68166868     0.82300
N68         N  0.47867642  0.08238600  0.72075860    -0.80200
C69         C  0.39092460  0.75640438  0.51031288     0.79800
N70         N  0.40730233  0.79450321  0.52065438    -0.78500
C71         C  0.39630133  0.81428309  0.55767016     0.82200
N72         N  0.36737099  0.79590933  0.58455797    -0.78500
C73         C  0.35011164  0.75762778  0.57389216     0.82300
N74         N  0.36234600  0.73836893  0.53696506    -0.80200
C75         C  0.52059394  0.80380783  0.78593409     0.79800
N76         N  0.50157975  0.82383301  0.75257443    -0.78500
C77         C  0.51499752  0.86253374  0.73980810     0.82200
N78         N  0.54703958  0.88173125  0.76092294    -0.78500
C79         C  0.56713256  0.86160169  0.79331832     0.82300
N80         N  0.55372763  0.82282886  0.80581575    -0.80200
C81         C  0.62958273  0.87441901  0.50198386     0.79800
N82         N  0.58939419  0.88660414  0.51136320    -0.78500
C83         C  0.56909552  0.87111919  0.54654954     0.82200
N84         N  0.58927658  0.84316695  0.57274307    -0.78500
C85         C  0.62929168  0.83048363  0.56322720     0.82300
N86         N  0.64887301  0.84637657  0.52813880    -0.80200
C87         C  0.34591422  0.07591341  0.45652591     0.79800
N88         N  0.36882750  0.05670281  0.48777759    -0.78500
C89         C  0.35675581  0.01866627  0.50354409     0.82200
N90         N  0.32190354  0.99938788  0.48763682    -0.78500
C91         C  0.29789267  0.01848514  0.45728135     0.82300
N92         N  0.31063571  0.05647397  0.44161418    -0.80200
C93         C  0.25260043  0.01225958  0.74596245     0.79800
N94         N  0.23206735  0.03933259  0.71964782    -0.78500
C95         C  0.24956440  0.05266695  0.68236091     0.82200
N96         N  0.28848046  0.03850528  0.67083628    -0.74900
C97         C  0.30954137  0.01110513  0.69669010     0.82300
N98         N  0.29145868  0.99798835  0.73409259    -0.80200
O99         O  0.48292428  0.92524542  0.71675589    -0.81300
O100        O  0.39799488  0.01173059  0.56640763    -0.66000
O101        O  0.42065614  0.93322584  0.65535153    -1.12600
C102        C  0.52701330  0.88762187  0.55790442     1.05600
O103        O  0.39506283  0.95748436  0.52145058    -0.79200
O104        O  0.42526899  0.87831566  0.53478634    -0.66800
Ni105      Ni  0.42724767  0.94949070  0.71295718     1.34900
C106        C  0.41714267  0.85505161  0.56690482     0.84300
O107        O  0.36329123  0.99933122  0.64488632    -0.79800
O108        O  0.37179970  0.97393539  0.71207133    -0.90000
C109        C  0.38501366  0.99515817  0.53182145     0.83900
O110        O  0.45230603  0.00343484  0.70429820    -0.68200
O111        O  0.50633923  0.90748404  0.52895678    -0.87500
C112        C  0.46115777  0.02627475  0.67210896     0.84700
C113        C  0.35081450  0.99402709  0.68366681     1.06300
H114        H  0.47996973  0.96771893  0.58516241     0.38100
O115        O  0.45622889  0.94854335  0.58463894    -1.10200
O116        O  0.42880354  0.86411275  0.60483230    -0.66800
Ni117      Ni  0.46696279  0.90695171  0.62700240     1.26300
O118        O  0.44872933  0.01766155  0.63438259    -0.67100
O119        O  0.51386197  0.88251337  0.59635152    -0.79400
C120        C  0.49067973  0.88667379  0.70861729     0.84100
O121        O  0.47820242  0.86989033  0.67395283    -0.66500
Ni122      Ni  0.45068292  0.93243851  0.52683753     1.27400
Ni123      Ni  0.40986941  0.97485105  0.61320734     1.26100
H124        H  0.39699062  0.91400875  0.65501396     0.38600
C125        C  0.04824789  0.12689640  0.04557142     0.79800
N126        N  0.03209580  0.09359753  0.06727349    -0.78500
C127        C  0.99620792  0.07440261  0.05416782     0.82200
N128        N  0.97638553  0.08810676  0.01791805    -0.78500
C129        C  0.99260644  0.12147780  0.99547774     0.82300
N130        N  0.02840642  0.14068261  0.00964816    -0.80200
C131        C  0.12083342  0.80797576  0.19665082     0.79800
N132        N  0.13402116  0.82423738  0.23450009    -0.78500
C133        C  0.11589488  0.85916504  0.25177843     0.82200
N134        N  0.08378946  0.87826111  0.23040024    -0.78500
C135        C  0.06913123  0.86217746  0.19292876     0.82300
N136        N  0.08843143  0.82747015  0.17539391    -0.80200
C137        C  0.86239619  0.07273608  0.26829587     0.79800
N138        N  0.82964151  0.05696970  0.29147704    -0.78500
C139        C  0.81190307  0.01932466  0.28161278     0.82200
N140        N  0.82743312  0.99736271  0.24783773    -0.78500
C141        C  0.86013239  0.01230205  0.22388387     0.82300
N142        N  0.87819580  0.05008467  0.23446092    -0.80200
C143        C  0.83170257  0.74079047  0.18435339     0.79800
N144        N  0.84501401  0.77781392  0.16726476    -0.78500
C145        C  0.88020813  0.79719142  0.18239169     0.82200
N146        N  0.90178706  0.78007582  0.21610366    -0.78500
C147        C  0.88843145  0.74281314  0.23343840     0.82300
N148        N  0.85371746  0.72382386  0.21725693    -0.80200
C149        C  0.75448913  0.06610091  0.04405944     0.79800
N150        N  0.78636496  0.04784749  0.06705297    -0.78500
C151        C  0.80613219  0.01251719  0.05194057     0.82200
N152        N  0.79254710  0.99436503  0.01526516    -0.78500
C153        C  0.76073778  0.01190250  0.99241341     0.82300
N154        N  0.74184080  0.04774527  0.00683777    -0.80200
C155        C  0.00657444  0.81905020  0.96443998     0.79800
N156        N  0.03883476  0.83686596  0.94220408    -0.78500
C157        C  0.05910950  0.87152233  0.95683375     0.82200
N158        N  0.04641635  0.88849396  0.99457932    -0.78500
C159        C  0.01394292  0.87156742  0.01751028     0.82300
N160        N  0.99352841  0.83666338  0.00224353    -0.80200
O161        O  0.86642725  0.86926740  0.17236868    -0.81300
O162        O  0.95063448  0.03223623  0.09771838    -0.66000
O163        O  0.90207737  0.92261523  0.11049076    -1.12600
C164        C  0.03796652  0.88716670  0.16844534     1.05600
O165        O  0.00987977  0.00415501  0.07215522    -0.79200
O166        O  0.02725890  0.92172435  0.07022442    -0.66800
Ni167      Ni  0.84771831  0.91393139  0.13456309     1.34900
C168        C  0.00290453  0.89204216  0.05866777     0.84300
O169        O  0.87551578  0.00088179  0.07705947    -0.79800
O170        O  0.82352106  0.95704404  0.09831774    -0.90000
C171        C  0.98430033  0.03495849  0.07564616     0.83900
O172        O  0.85259032  0.95314666  0.18026800    -0.68200
O173        O  0.05009963  0.92306469  0.15455364    -0.87500
C174        C  0.87306654  0.98713467  0.18598001     0.84700
C175        C  0.83695775  0.98933113  0.07789927     1.06300
H176        H  0.97156993  0.96396541  0.16427593     0.38100
O177        O  0.97164577  0.95371520  0.13512680    -1.10200
O178        O  0.97083798  0.88040866  0.08052922    -0.66800
Ni179      Ni  0.95055319  0.89717050  0.13701788     1.26300
O180        O  0.90175755  0.00007845  0.16024503    -0.67100
O181        O  0.00066362  0.87277790  0.16293403    -0.79400
C182        C  0.89136989  0.83856352  0.16468886     0.84100
O183        O  0.92452474  0.84302420  0.14208967    -0.66500
Ni184      Ni  0.02726297  0.96312120  0.11431726     1.27400
Ni185      Ni  0.92415195  0.97850682  0.10601646     1.26100
H186        H  0.90010252  0.91191170  0.08157522     0.38600
C187        C  0.12264702  0.57197981  0.69120915     0.79800
N188        N  0.09071263  0.55208048  0.66954218    -0.78500
C189        C  0.07611128  0.51365529  0.68357719     0.82200
N190        N  0.09472352  0.49480041  0.71780286    -0.78500
C191        C  0.12638175  0.51430507  0.73928962     0.82300
N192        N  0.13990889  0.55257518  0.72566062    -0.80200
C193        C  0.75572869  0.31239399  0.54648994     0.79800
N194        N  0.74037912  0.32968279  0.50999974    -0.78500
C195        C  0.75574210  0.36639033  0.49396132     0.82200
N196        N  0.78810287  0.38588190  0.51475475    -0.78500
C197        C  0.80505313  0.36842651  0.55080179     0.82300
N198        N  0.78825172  0.33202282  0.56706995    -0.80200
C199        C  0.83700375  0.63209559  0.69296754     0.79800
N200        N  0.85719915  0.64626757  0.72833491    -0.78500
C201        C  0.89239671  0.62654081  0.74292120     0.82200
N202        N  0.90745758  0.59174280  0.72195447    -0.78500
C203        C  0.88679763  0.57714127  0.68654880     0.82300
N204        N  0.85162801  0.59727006  0.67252888    -0.80200
C205        C  0.04342669  0.24325592  0.54164191     0.79800
N206        N  0.03037673  0.27852896  0.56249738    -0.78500
C207        C  0.99381886  0.29827130  0.55166307     0.82200
N208        N  0.97008396  0.28299133  0.51857771    -0.78500
C209        C  0.98280952  0.24725413  0.49760107     0.82300
N210        N  0.01922649  0.22790503  0.50945154    -0.80200
C211        C  0.87728016  0.31229425  0.77401041     0.79800
N212        N  0.84411863  0.32709222  0.79711309    -0.78500
C213        C  0.82237285  0.36171993  0.78453943     0.82200
N214        N  0.83420194  0.38163004  0.74801524    -0.78500
C215        C  0.86720862  0.36743306  0.72395305     0.82300
N216        N  0.88930446  0.33261011  0.73720898    -0.80200
C217        C  0.00510759  0.56429192  0.46343573     0.79800
N218        N  0.99235344  0.54356766  0.49971465    -0.78500
C219        C  0.01342403  0.50793855  0.51239701     0.82200
N220        N  0.04604328  0.49309496  0.48818953    -0.78500
C221        C  0.05811337  0.51306220  0.45184122     0.82300
N222        N  0.03769900  0.54869727  0.43994019    -0.80200
O223        O  0.01113901  0.36852099  0.56725820    -0.81300
O224        O  0.92965640  0.53332126  0.64205261    -0.66000
O225        O  0.97600443  0.42240538  0.62954748    -1.12600
C226        C  0.83745680  0.39190818  0.57510640     1.05600
O227        O  0.87350965  0.50538643  0.67389698    -0.79200
O228        O  0.85398829  0.42262276  0.67600632    -0.66800
Ni229      Ni  0.03034121  0.41275457  0.60532744     1.34900
C230        C  0.87725625  0.39083438  0.68397806     0.84300
O231        O  0.00573819  0.50228143  0.65949803    -0.79800
O232        O  0.05588979  0.45519733  0.64157433    -0.90000
C233        C  0.89774787  0.53664631  0.66660590     0.83900
O234        O  0.02545302  0.45218760  0.55963158    -0.68200
O235        O  0.82597687  0.42638468  0.59299839    -0.87500
C236        C  0.00320320  0.48485274  0.55234392     0.84700
C237        C  0.04393279  0.48941108  0.65960723     1.06300
H238        H  0.90396871  0.46577950  0.57923465     0.38100
O239        O  0.90593142  0.45497441  0.60808906    -1.10200
O240        O  0.90728593  0.37904745  0.65933251    -0.66800
Ni241      Ni  0.92628937  0.39852374  0.60321152     1.26300
O242        O  0.97451426  0.49813585  0.57788318    -0.67100
O243        O  0.87497778  0.37694309  0.57739080    -0.79400
C244        C  0.98426602  0.33899916  0.57229567     0.84100
O245        O  0.95094849  0.34386461  0.59462668    -0.66500
Ni246      Ni  0.85206726  0.46512848  0.63273641     1.27400
Ni247      Ni  0.95523180  0.47914075  0.63402921     1.26100
H248        H  0.97778657  0.41166710  0.65848378     0.38600
C249        C  0.91231396  0.64305734  0.78228238    -0.20300
C250        C  0.88910277  0.64440206  0.82089465     0.35900
C251        C  0.90442642  0.66796668  0.85577047    -0.26300
C252        C  0.94210040  0.69111303  0.85253172     0.02300
C253        C  0.96609084  0.68854189  0.81415379     0.27200
C254        C  0.95111368  0.66411699  0.77960925    -0.25400
N255        N  0.84932735  0.62272910  0.82395945    -0.82800
H256        H  0.88636008  0.66916477  0.88527850     0.13000
C257        C  0.95527555  0.71945902  0.88845905     0.02300
N258        N  0.00464996  0.71215379  0.80971927    -0.81400
H259        H  0.96844397  0.66364129  0.74961513     0.17800
C260        C  0.99659837  0.71644662  0.90431851    -0.26200
C261        C  0.01288378  0.74714766  0.93220839     0.35800
C262        C  0.98690461  0.78083988  0.94594787    -0.20200
C263        C  0.94435135  0.78168783  0.93368070    -0.25500
C264        C  0.92831943  0.75161987  0.90454964     0.27200
H265        H  0.01694754  0.69118103  0.89310485     0.12900
N266        N  0.05646098  0.74553686  0.94503707    -0.82800
H267        H  0.92460832  0.80781831  0.94393601     0.17800
N268        N  0.88556999  0.75510616  0.88948248    -0.81400
H269        H  0.07159661  0.71929315  0.93159527     0.33400
H270        H  0.05713083  0.74144011  0.97826400     0.37900
H271        H  0.87003357  0.78026958  0.90449615     0.33400
H272        H  0.88676618  0.76232842  0.85681134     0.30100
H273        H  0.01844956  0.70678035  0.77973159     0.33400
H274        H  0.99691658  0.74426147  0.81093360     0.30100
H275        H  0.85540373  0.59038972  0.82088423     0.38000
H276        H  0.83584900  0.62712874  0.85425625     0.33400
C277        C  0.98269954  0.60165406  0.44613568    -0.20300
C278        C  0.00616450  0.63681112  0.43155125     0.35900
C279        C  0.98770626  0.66559002  0.40276208    -0.26300
C280        C  0.94647416  0.65953631  0.38775412     0.02300
C281        C  0.92173586  0.62661215  0.40537584     0.27200
C282        C  0.94006928  0.59805506  0.43465629    -0.25400
N283        N  0.04961586  0.64150362  0.44397340    -0.82800
H284        H  0.00665635  0.69086566  0.38937936     0.13000
C285        C  0.93262272  0.68260876  0.34855479     0.02300
N286        N  0.87885530  0.62097763  0.39149454    -0.81400
H287        H  0.92215545  0.57094764  0.44558491     0.17800
C288        C  0.92484995  0.65891377  0.31149482    -0.26200
C289        C  0.91310121  0.67838946  0.27294396     0.35800
C290        C  0.90894433  0.72284343  0.27108812    -0.20200
C291        C  0.91817343  0.74689183  0.30772198    -0.25500
C292        C  0.92971494  0.72713351  0.34662855     0.27200
H293        H  0.92819678  0.62484582  0.31265513     0.12900
N294        N  0.90498874  0.65308495  0.23558184    -0.82800
H295        H  0.91431574  0.78089155  0.30657811     0.17800
N296        N  0.93735471  0.75191505  0.38437378    -0.81400
H297        H  0.90899004  0.62097456  0.24236246     0.33400
H298        H  0.92767991  0.66091746  0.21251832     0.37900
H299        H  0.93375938  0.78408830  0.37767136     0.33400
H300        H  0.91404776  0.74417629  0.40683885     0.30100
H301        H  0.86516867  0.59500598  0.40686464     0.33400
H302        H  0.86174866  0.64760274  0.40120821     0.30100
H303        H  0.05018379  0.64618275  0.47712575     0.38000
H304        H  0.06271048  0.66855363  0.43006045     0.33400
C305        C  0.88319191  0.11135479  0.28480176    -0.20300
C306        C  0.85852550  0.14569451  0.29965527     0.35900
C307        C  0.87601100  0.17471940  0.32886183    -0.26300
C308        C  0.91750119  0.16974543  0.34365271     0.02300
C309        C  0.94345613  0.13825440  0.32511408     0.27200
C310        C  0.92609902  0.10948962  0.29557921    -0.25400
N311        N  0.81500686  0.14927197  0.28705676    -0.82800
H312        H  0.85624170  0.19917282  0.34269993     0.13000
C313        C  0.93089560  0.19185053  0.38354151     0.02300
N314        N  0.98662449  0.13399991  0.33861843    -0.81400
H315        H  0.94506885  0.08324399  0.28419167     0.17800
C316        C  0.93819126  0.16718764  0.42009260    -0.26200
C317        C  0.95231279  0.18532071  0.45848936     0.35800
C318        C  0.95929196  0.22932198  0.46072473    -0.20200
C319        C  0.94991311  0.25452079  0.42485443    -0.25500
C320        C  0.93591585  0.23611405  0.38607751     0.27200
H321        H  0.93328317  0.13334118  0.41841772     0.12900
N322        N  0.96035081  0.15906896  0.49519672    -0.82800
H323        H  0.95570247  0.28821468  0.42636505     0.17800
N324        N  0.92807003  0.26190745  0.34905369    -0.81400
H325        H  0.93914085  0.16806880  0.51927263     0.33400
H326        H  0.95400406  0.12739413  0.48823924     0.37900
H327        H  0.93344563  0.29373370  0.35613760     0.33400
H328        H  0.95010356  0.25342046  0.32554793     0.30100
H329        H  0.00128576  0.10889024  0.32264163     0.33400
H330        H  0.00254158  0.16145178  0.32934726     0.30100
H331        H  0.81446081  0.15424108  0.25394233     0.38000
H332        H  0.80104644  0.17584592  0.30112754     0.33400
C333        C  0.89996716  0.27532329  0.79157734    -0.20300
C334        C  0.93869609  0.28054666  0.81301197     0.35900
C335        C  0.95297513  0.24873882  0.84110442    -0.26300
C336        C  0.92929049  0.21176306  0.84825764     0.02300
C337        C  0.89168113  0.20560583  0.82490639     0.27200
C338        C  0.87729925  0.23756825  0.79707252    -0.25400
N339        N  0.96165507  0.31946785  0.80872995    -0.82800
H340        H  0.98170038  0.25375761  0.85919852     0.13000
C341        C  0.94309641  0.18164872  0.88245846     0.02300
N342        N  0.86765531  0.16750237  0.83049523    -0.81400
H343        H  0.84708430  0.23400441  0.78122069     0.17800
C344        C  0.91592480  0.17237067  0.91700496    -0.26200
C345        C  0.93029783  0.14950206  0.95303367     0.35800
C346        C  0.97304513  0.13690143  0.95509002    -0.20200
C347        C  0.99932276  0.14388565  0.91941359    -0.25500
C348        C  0.98454576  0.16528155  0.88284802     0.27200
H349        H  0.88393122  0.18458448  0.91670460     0.12900
N350        N  0.90243038  0.14148636  0.98853869    -0.82800
H351        H  0.03190947  0.13338332  0.92052330     0.17800
N352        N  0.01170354  0.17129690  0.84636778    -0.81400
H353        H  0.87255123  0.15435093  0.98267468     0.33400
H354        H  0.89821110  0.10879323  0.99055273     0.37900
H355        H  0.04117546  0.15729232  0.85162340     0.33400
H356        H  0.99811929  0.15533599  0.82051609     0.30100
H357        H  0.84067875  0.16801256  0.81123148     0.33400
H358        H  0.88630981  0.14237156  0.81966741     0.30100
H359        H  0.97177828  0.32171852  0.77690091     0.38000
H360        H  0.98890179  0.31886130  0.82759539     0.33400
C361        C  0.22520484  0.08117384  0.65429614    -0.20300
C362        C  0.18107262  0.07616518  0.65025312     0.35900
C363        C  0.15795220  0.10565649  0.62662016    -0.26300
C364        C  0.17785810  0.13959955  0.60618787     0.02300
C365        C  0.22205767  0.14413085  0.60887817     0.27200
C366        C  0.24548059  0.11465699  0.63298411    -0.25400
N367        N  0.15987721  0.04093882  0.66991723    -0.82800
H368        H  0.12395092  0.10234447  0.62423767     0.13000
C369        C  0.15064552  0.16996188  0.58314861     0.02300
N370        N  0.24274002  0.17854756  0.58739328    -0.81400
H371        H  0.27937347  0.11835703  0.63600088     0.17800
C372        C  0.14443717  0.21042778  0.60014952    -0.26200
C373        C  0.11114698  0.23627703  0.58571956     0.35800
C374        C  0.08300608  0.22068354  0.55409111    -0.20200
C375        C  0.09181247  0.18132785  0.53493278    -0.25500
C376        C  0.12535480  0.15600108  0.54903637     0.27200
H377        H  0.16430792  0.22098059  0.62625944     0.12900
N378        N  0.10540984  0.27759372  0.60397153    -0.82800
H379        H  0.07152668  0.16926015  0.50989436     0.17800
N380        N  0.13277342  0.11513644  0.53030311    -0.81400
H381        H  0.12802699  0.28342319  0.62759578     0.33400
H382        H  0.11089377  0.29963622  0.57963230     0.37900
H383        H  0.11110388  0.10918634  0.50581946     0.33400
H384        H  0.16268477  0.11578958  0.51601079     0.30100
H385        H  0.27532543  0.17739983  0.59273061     0.33400
H386        H  0.23836073  0.17438500  0.55446912     0.30100
H387        H  0.17106388  0.01342535  0.65518736     0.38000
H388        H  0.12737840  0.04216628  0.66409985     0.33400
C389        C  0.09386415  0.89151596  0.93141417    -0.20300
C390        C  0.11115883  0.87230344  0.89417016     0.35900
C391        C  0.14152213  0.89406874  0.86984620    -0.26300
C392        C  0.15582963  0.93419052  0.88187290     0.02300
C393        C  0.13990440  0.95291558  0.91958628     0.27200
C394        C  0.10914440  0.93148130  0.94387339    -0.25400
N395        N  0.09781238  0.83100181  0.88066985    -0.82800
H396        H  0.15355212  0.87995702  0.84061352     0.13000
C397        C  0.18467430  0.95721884  0.85233510     0.02300
N398        N  0.15468728  0.99381789  0.93276592    -0.81400
H399        H  0.09657549  0.94659461  0.97231894     0.17800
C400        C  0.17139504  0.99581174  0.83503078    -0.26200
C401        C  0.19433457  0.01576019  0.80220554     0.35800
C402        C  0.23103909  0.99597477  0.78524774    -0.20200
C403        C  0.24557688  0.95847155  0.80449638    -0.25500
C404        C  0.22296116  0.93913021  0.83806670     0.27200
H405        H  0.14209032  0.00977826  0.84620844     0.12900
N406        N  0.17992758  0.05569317  0.78575366    -0.82800
H407        H  0.27394774  0.94334736  0.79248337     0.17800
N408        N  0.23819834  0.90072610  0.85720844    -0.81400
H409        H  0.15214438  0.06530725  0.80114232     0.33400
H410        H  0.20288112  0.07822952  0.79320512     0.37900
H411        H  0.26663704  0.89133102  0.84296622     0.33400
H412        H  0.24491730  0.90724362  0.88931798     0.30100
H413        H  0.13961492  0.00336539  0.96101428     0.33400
H414        H  0.18682468  0.99096668  0.93988375     0.30100
H415        H  0.10865368  0.80939639  0.90348521     0.38000
H416        H  0.11215950  0.82256594  0.85168278     0.33400
C417        C  0.13559066  0.87936103  0.28997928    -0.20300
C418        C  0.11560882  0.91220692  0.31331873     0.35900
C419        C  0.13843142  0.93399760  0.34502511    -0.26300
C420        C  0.18040378  0.92328159  0.35439038     0.02300
C421        C  0.19961702  0.88913287  0.33291042     0.27200
C422        C  0.17698355  0.86740743  0.30127350    -0.25400
N423        N  0.07248639  0.92360739  0.30469781    -0.82800
H424        H  0.12369269  0.95992301  0.36215314     0.13000
C425        C  0.20510683  0.94966426  0.38453716     0.02300
N426        N  0.24260399  0.87759970  0.34225434    -0.81400
H427        H  0.19272461  0.84215251  0.28407497     0.17800
C428        C  0.22238940  0.93128424  0.42138644    -0.26200
C429        C  0.25055916  0.95377094  0.44765414     0.35800
C430        C  0.26217756  0.99563633  0.43631418    -0.20200
C431        C  0.24204771  0.01478680  0.40107030    -0.25500
C432        C  0.21417816  0.99213283  0.37482215     0.27200
H433        H  0.21464574  0.89879318  0.42900505     0.12900
N434        N  0.26801330  0.93366326  0.48494646    -0.82800
H435        H  0.24965797  0.04700849  0.39238122     0.17800
N436        N  0.19656011  0.01151348  0.33718989    -0.81400
H437        H  0.25646502  0.94977996  0.51178556     0.33400
H438        H  0.25729990  0.90253698  0.48763149     0.37900
H439        H  0.20614257  0.04301979  0.33470361     0.33400
H440        H  0.20898710  0.99583590  0.31048092     0.30100
H441        H  0.25196995  0.85156867  0.32389861     0.33400
H442        H  0.26191927  0.90279270  0.33300921     0.30100
H443        H  0.05363158  0.89776314  0.31302151     0.38000
H444        H  0.06290743  0.94867572  0.32428135     0.33400
C445        C  0.65355741  0.80167954  0.59124731    -0.20300
C446        C  0.63606903  0.76463461  0.60920368     0.35900
C447        C  0.66294784  0.73538643  0.62968381    -0.26300
C448        C  0.70661668  0.74262058  0.63198292     0.02300
C449        C  0.72352255  0.78076985  0.61642424     0.27200
C450        C  0.69687240  0.80980610  0.59621177    -0.25400
N451        N  0.59175407  0.75588847  0.60485605    -0.82800
H452        H  0.65023199  0.70602978  0.64202731     0.13000
C453        C  0.73543502  0.70920190  0.64749553     0.02300
N454        N  0.76801190  0.78921063  0.62017990    -0.81400
H455        H  0.71025026  0.83859473  0.58319163     0.17800
C456        C  0.76416034  0.69143652  0.61830506    -0.26200
C457        C  0.79664957  0.66463154  0.63219113     0.35800
C458        C  0.80029321  0.65548328  0.67627231    -0.20200
C459        C  0.77009415  0.67137595  0.70516572    -0.25500
C460        C  0.73737063  0.69800718  0.69109402     0.27200
H461        H  0.76217868  0.70001042  0.58474101     0.12900
N462        N  0.82697347  0.64832808  0.60199480    -0.82800
H463        H  0.77264139  0.66370611  0.73890850     0.17800
N464        N  0.70687997  0.71455562  0.72091350    -0.81400
H465        H  0.81938930  0.65773761  0.57082873     0.33400
H466        H  0.85622750  0.66191885  0.60906416     0.37900
H467        H  0.71244683  0.70273494  0.75167659     0.33400
H468        H  0.71116241  0.74725811  0.72253839     0.30100
H469        H  0.77552425  0.81841498  0.60649323     0.33400
H470        H  0.77498063  0.79155177  0.65282130     0.30100
H471        H  0.58555875  0.75159160  0.57225805     0.38000
H472        H  0.58409018  0.72745423  0.62004551     0.33400
C473        C  0.65350605  0.89410241  0.46582702    -0.20300
C474        C  0.69771550  0.88815494  0.46062645     0.35900
C475        C  0.71945477  0.91000079  0.42840051    -0.26300
C476        C  0.69837204  0.93775144  0.40096439     0.02300
C477        C  0.65444808  0.94336526  0.40504388     0.27200
C478        C  0.63236094  0.92127845  0.43722443    -0.25400
N479        N  0.72118885  0.86077082  0.48836095    -0.82800
H480        H  0.75331210  0.90572528  0.42515913     0.13000
C481        C  0.72347601  0.96161356  0.36915870     0.02300
N482        N  0.63264390  0.97190781  0.37690239    -0.81400
H483        H  0.59861589  0.92607628  0.44043103     0.17800
C484        C  0.72618972  0.94693766  0.32694771    -0.26200
C485        C  0.75348572  0.96620426  0.29726338     0.35800
C486        C  0.77886289  0.00075610  0.31006201    -0.20200
C487        C  0.77441845  0.01641442  0.35207868    -0.25500
C488        C  0.74711685  0.99709429  0.38172389     0.27200
H489        H  0.70775989  0.91974317  0.31727408     0.12900
N490        N  0.75524525  0.95041322  0.25429118    -0.82800
H491        H  0.79334995  0.04296378  0.36246297     0.17800
N492        N  0.74414191  0.01253095  0.42495652    -0.81400
H493        H  0.72489520  0.95226384  0.24126685     0.33400
H494        H  0.76396667  0.91855857  0.25550211     0.37900
H495        H  0.76403744  0.03850915  0.42931806     0.33400
H496        H  0.71328117  0.02344470  0.42966037     0.30100
H497        H  0.60031993  0.97229650  0.38389654     0.33400
H498        H  0.64387002  0.00235195  0.38306352     0.30100
H499        H  0.73613484  0.83783236  0.46954387     0.38000
H500        H  0.74453591  0.87863378  0.50354317     0.33400
C501        C  0.60044228  0.88342477  0.81756695    -0.20300
C502        C  0.59394942  0.92461818  0.83328845     0.35900
C503        C  0.62572652  0.94442087  0.85698746    -0.26300
C504        C  0.66406488  0.92379586  0.86541742     0.02300
C505        C  0.67075371  0.88249943  0.84963673     0.27200
C506        C  0.63860919  0.86253556  0.82610890    -0.25400
N507        N  0.55435989  0.94569029  0.82692692    -0.82800
H508        H  0.61986897  0.97561223  0.87008009     0.13000
C509        C  0.69471603  0.94453741  0.89439297     0.02300
N510        N  0.71000350  0.86107629  0.85774263    -0.81400
H511        H  0.64340640  0.83075728  0.81410080     0.17800
C512        C  0.70513827  0.92440715  0.93292865    -0.26200
C513        C  0.72816556  0.94548456  0.96466984     0.35800
C514        C  0.74116999  0.98757736  0.95754893    -0.20200
C515        C  0.73231150  0.00722631  0.91834519    -0.25500
C516        C  0.70955966  0.98584424  0.88636372     0.27200
H517        H  0.69324148  0.89292046  0.93923207     0.12900
N518        N  0.73642045  0.92507569  0.00499476    -0.82800
H519        H  0.74263064  0.03943669  0.91300313     0.17800
N520        N  0.70066131  0.00605659  0.84613739    -0.81400
H521        H  0.72491839  0.89412613  0.00491371     0.33400
H522        H  0.71950345  0.94132028  0.02865991     0.37900
H523        H  0.71372002  0.03637137  0.84534367     0.33400
H524        H  0.71581485  0.98862150  0.82212873     0.30100
H525        H  0.70978623  0.83091446  0.84408111     0.33400
H526        H  0.73391609  0.87803892  0.84228132     0.30100
H527        H  0.56025658  0.97423338  0.81116044     0.38000
H528        H  0.54151193  0.95267957  0.85701376     0.33400
C529        C  0.31664953  0.73662181  0.60009301    -0.20300
C530        C  0.31649950  0.69211192  0.60453372     0.35900
C531        C  0.28009498  0.67145681  0.61970901    -0.26300
C532        C  0.24384860  0.69411310  0.63159950     0.02300
C533        C  0.24492880  0.73874497  0.63042496     0.27200
C534        C  0.28137223  0.75961835  0.61464829    -0.25400
N535        N  0.35328017  0.66792664  0.59297672    -0.82800
H536        H  0.27976181  0.63728219  0.62189553     0.13000
C537        C  0.20556893  0.66982817  0.64524392     0.02300
N538        N  0.20864084  0.76258129  0.64400542    -0.81400
H539        H  0.28128489  0.79369967  0.61144338     0.17800
C540        C  0.19448405  0.66827263  0.68868233    -0.26200
C541        C  0.16414142  0.63922260  0.70384309     0.35800
C542        C  0.14433310  0.61086396  0.67492441    -0.20200
C543        C  0.15275711  0.61519138  0.63092888    -0.25500
C544        C  0.18331055  0.64422233  0.61587187     0.27200
H545        H  0.21122411  0.68820974  0.71116422     0.12900
N546        N  0.15466671  0.63715259  0.74888523    -0.82800
H547        H  0.13784017  0.59378392  0.60853462     0.17800
N548        N  0.19328219  0.64654296  0.57099276    -0.81400
H549        H  0.17220573  0.65954894  0.76583921     0.33400
H550        H  0.12286470  0.64529724  0.75278701     0.37900
H551        H  0.17452672  0.62552192  0.55358786     0.33400
H552        H  0.18537319  0.67690707  0.56049511     0.30100
H553        H  0.21448521  0.79497711  0.64127399     0.33400
H554        H  0.18396360  0.75567835  0.62294697     0.30100
H555        H  0.37764827  0.67666712  0.61370277     0.38000
H556        H  0.34805822  0.63566009  0.59779725     0.33400
C557        C  0.73287455  0.27533590  0.56499903    -0.20300
C558        C  0.72340140  0.27217067  0.60917662     0.35900
C559        C  0.69525132  0.24057944  0.62364132    -0.26300
C560        C  0.67612037  0.21202847  0.59502716     0.02300
C561        C  0.68721834  0.21398824  0.55124219     0.27200
C562        C  0.71503930  0.24566778  0.53674322    -0.25400
N563        N  0.74053986  0.30222832  0.63894337    -0.82800
H564        H  0.68667045  0.23947430  0.65724643     0.13000
C565        C  0.64282210  0.18205960  0.61095673     0.02300
N566        N  0.66978765  0.18404517  0.52153885    -0.81400
H567        H  0.72220033  0.24778290  0.50283569     0.17800
C568        C  0.60262295  0.18165440  0.59157752    -0.26200
C569        C  0.56932087  0.15673539  0.60806750     0.35800
C570        C  0.57605582  0.13220556  0.64510023    -0.20200
C571        C  0.61647954  0.13147032  0.66358790    -0.25500
C572        C  0.65001160  0.15552827  0.64660536     0.27200
H573        H  0.59671369  0.20211685  0.56441610     0.12900
N574        N  0.52808398  0.15830090  0.58898516    -0.82800
H575        H  0.62154511  0.11287246  0.69228850     0.17800
N576        N  0.69118012  0.15362645  0.66585254    -0.81400
H577        H  0.52805656  0.17865752  0.56259502     0.33400
H578        H  0.52142175  0.12814667  0.57715118     0.37900
H579        H  0.69119498  0.13278693  0.69185161     0.33400
H580        H  0.71197721  0.14104867  0.64308943     0.30100
H581        H  0.68083274  0.18987039  0.49049590     0.33400
H582        H  0.68090190  0.15411404  0.53016873     0.30100
H583        H  0.72758591  0.33177634  0.63167750     0.38000
H584        H  0.73102572  0.29510973  0.67022627     0.33400
C585        C  0.36402971  0.11245422  0.43270622    -0.20300
C586        C  0.34013742  0.13540581  0.40217122     0.35900
C587        C  0.36104472  0.16215480  0.37312847    -0.26300
C588        C  0.40495277  0.16695598  0.37445746     0.02300
C589        C  0.42839363  0.14730558  0.40707079     0.27200
C590        C  0.40765674  0.12053974  0.43615320    -0.25400
N591        N  0.29504100  0.13059438  0.39981575    -0.82800
H592        H  0.34329234  0.17808401  0.34823524     0.13000
C593        C  0.42632157  0.18890780  0.33881348     0.02300
N594        N  0.47331756  0.15355925  0.40963447    -0.81400
H595        H  0.42633094  0.10388446  0.45978504     0.17800
C596        C  0.43400312  0.23237388  0.34141837    -0.26200
C597        C  0.45313788  0.25403379  0.30713342     0.35800
C598        C  0.46476783  0.23146211  0.26980664    -0.20200
C599        C  0.45755786  0.18779116  0.26775387    -0.25500
C600        C  0.43813116  0.16632648  0.30178275     0.27200
H601        H  0.42479669  0.24935638  0.37011714     0.12900
N602        N  0.46097698  0.29865984  0.31014979    -0.82800
H603        H  0.46597503  0.17055588  0.23896364     0.17800
N604        N  0.42923735  0.12189526  0.29851558    -0.81400
H605        H  0.45035215  0.31041971  0.33958174     0.33400
H606        H  0.49370845  0.30304896  0.30947757     0.37900
H607        H  0.43893944  0.11020543  0.26873305     0.33400
H608        H  0.44735168  0.10625142  0.32155447     0.30100
H609        H  0.48582835  0.13722142  0.43582495     0.33400
H610        H  0.48705609  0.14031473  0.38225588     0.30100
H611        H  0.28227990  0.14204848  0.42848982     0.38000
H612        H  0.28252680  0.14923678  0.37525300     0.33400
C613        C  0.72836368  0.10077946  0.06266063    -0.20300
C614        C  0.71102391  0.13313234  0.03680369     0.35900
C615        C  0.68052980  0.16092334  0.05417805    -0.26300
C616        C  0.66682381  0.15702370  0.09684754     0.02300
C617        C  0.68572572  0.12592647  0.12319503     0.27200
C618        C  0.71635372  0.09839655  0.10590733    -0.25400
N619        N  0.72389859  0.13714754  0.99278950    -0.82800
H620        H  0.66613044  0.18463533  0.03385417     0.13000
C621        C  0.63011262  0.18272725  0.11255764     0.02300
N622        N  0.67286052  0.12168659  0.16720198    -0.81400
H623        H  0.72935095  0.07354952  0.12582070     0.17800
C624        C  0.59458708  0.16145392  0.12846612    -0.26200
C625        C  0.55963163  0.18343902  0.14509114     0.35800
C626        C  0.55969794  0.22821586  0.14592019    -0.20200
C627        C  0.59440206  0.24975481  0.12812734    -0.25500
C628        C  0.62976014  0.22743834  0.11169744     0.27200
H629        H  0.59423165  0.12721798  0.12809264     0.12900
N630        N  0.52403784  0.16026458  0.16153678    -0.82800
H631        H  0.59485973  0.28396689  0.12896132     0.17800
N632        N  0.66573906  0.24996706  0.09535387    -0.81400
H633        H  0.52916262  0.12770129  0.15921943     0.33400
H634        H  0.49807889  0.16722155  0.14211893     0.37900
H635        H  0.66060462  0.28256537  0.09702106     0.33400
H636        H  0.69132199  0.24334715  0.11540393     0.30100
H637        H  0.68919855  0.09697066  0.18203123     0.33400
H638        H  0.68146951  0.14941266  0.18311677     0.30100
H639        H  0.75604399  0.14472054  0.99253637     0.38000
H640        H  0.70815643  0.16234674  0.97813603     0.33400
C641        C  0.08593934  0.14901566  0.06243964    -0.20300
C642        C  0.11775237  0.12716879  0.08534018     0.35900
C643        C  0.14991257  0.15014693  0.10580340    -0.26300
C644        C  0.15123166  0.19430842  0.10323842     0.02300
C645        C  0.12050232  0.21599552  0.07899173     0.27200
C646        C  0.08842132  0.19308893  0.05847888    -0.25400
N647        N  0.11735191  0.08179705  0.08763133    -0.82800
H648        H  0.17393286  0.13366747  0.12401886     0.13000
C649        C  0.18389076  0.21814670  0.12708737     0.02300
N650        N  0.12132868  0.26135389  0.07641861    -0.81400
H651        H  0.06413036  0.20993725  0.04099593     0.17800
C652        C  0.21292419  0.24280565  0.10420339    -0.26200
C653        C  0.23983514  0.27127352  0.12529183     0.35800
C654        C  0.23633472  0.27624111  0.17027495    -0.20200
C655        C  0.20949983  0.24903914  0.19332536    -0.25500
C656        C  0.18363364  0.21962299  0.17221707     0.27200
H657        H  0.21364330  0.24065109  0.06955101     0.12900
N658        N  0.26893055  0.29649632  0.10082095    -0.82800
H659        H  0.20774061  0.25165001  0.22790672     0.17800
N660        N  0.15614095  0.19231270  0.19630163    -0.81400
H661        H  0.26532441  0.29084624  0.06802284     0.33400
H662        H  0.29941158  0.28624170  0.10846388     0.37900
H663        H  0.16025802  0.19694593  0.22919873     0.33400
H664        H  0.12499456  0.20088356  0.18935387     0.30100
H665        H  0.09664570  0.27245723  0.05725478     0.33400
H666        H  0.11592659  0.27318570  0.10723559     0.30100
H667        H  0.14280205  0.07074169  0.10576956     0.38000
H668        H  0.12173808  0.07027407  0.05653086     0.33400
C669        C  0.09118250  0.49448490  0.42394769    -0.20300
C670        C  0.08712688  0.49505305  0.37882767     0.35900
C671        C  0.11766962  0.47474176  0.35348669    -0.26300
C672        C  0.15181973  0.45362620  0.37217837     0.02300
C673        C  0.15683484  0.45400452  0.41697249     0.27200
C674        C  0.12625696  0.47432122  0.44255280    -0.25400
N675        N  0.05120722  0.51473719  0.35891128    -0.82800
H676        H  0.11420117  0.47418659  0.31894701     0.13000
C677        C  0.18034146  0.42917351  0.34403314     0.02300
N678        N  0.19279793  0.43373610  0.43614380    -0.81400
H679        H  0.12961711  0.47420400  0.47709736     0.17800
C680        C  0.21602061  0.44870020  0.32667673    -0.26200
C681        C  0.24085298  0.42825912  0.29551455     0.35800
C682        C  0.23004851  0.38667440  0.28207437    -0.20200
C683        C  0.19462015  0.36700816  0.30071211    -0.25500
C684        C  0.16962710  0.38792785  0.33138243     0.27200
H685        H  0.22351085  0.48072240  0.33630053     0.12900
N686        N  0.27588816  0.45043222  0.27661487    -0.82800
H687        H  0.18593221  0.33536370  0.29094722     0.17800
N688        N  0.13260394  0.36802424  0.34889964    -0.81400
H689        H  0.28043050  0.47964994  0.29152701     0.33400
H690        H  0.26790077  0.45707152  0.24482399     0.37900
H691        H  0.12860758  0.33789976  0.33580608     0.33400
H692        H  0.13757221  0.36379622  0.38172158     0.30100
H693        H  0.19201978  0.43728130  0.46944488     0.33400
H694        H  0.19055886  0.40135303  0.43002652     0.30100
H695        H  0.02439435  0.49753568  0.36779042     0.38000
H696        H  0.05339092  0.51276522  0.32553595     0.33400
C697        C  0.50122765  0.76577066  0.80594136    -0.20300
C698        C  0.45790065  0.75589712  0.80083703     0.35900
C699        C  0.43866661  0.72674363  0.82853522    -0.26300
C700        C  0.46180197  0.70696118  0.86104829     0.02300
C701        C  0.50568389  0.71371227  0.86384863     0.27200
C702        C  0.52500104  0.74278295  0.83604686    -0.25400
N703        N  0.43261823  0.77682436  0.76927360    -0.82800
H704        H  0.40500954  0.72102105  0.82597058     0.13000
C705        C  0.43916160  0.68310841  0.89481576     0.02300
N706        N  0.53005383  0.69257542  0.89625612    -0.81400
H707        H  0.55840549  0.74925772  0.83965980     0.17800
C708        C  0.44588646  0.63962678  0.89917565    -0.26200
C709        C  0.42751685  0.61687246  0.93316509     0.35800
C710        C  0.40239050  0.63845846  0.96398108    -0.20200
C711        C  0.39451540  0.68182759  0.95826902    -0.25500
C712        C  0.41288270  0.70438371  0.92427439     0.27200
H713        H  0.46592503  0.62353294  0.87615219     0.12900
N714        N  0.43453641  0.57209273  0.93639694    -0.82800
H715        H  0.37536127  0.69875069  0.98141355     0.17800
N716        N  0.40606846  0.74915018  0.92027997    -0.81400
H717        H  0.45428456  0.56150167  0.91170688     0.33400
H718        H  0.40540544  0.55719544  0.93200407     0.37900
H719        H  0.38575796  0.76002131  0.94436047     0.33400
H720        H  0.43508830  0.76413147  0.92513324     0.30100
H721        H  0.56194616  0.70084053  0.89385094     0.33400
H722        H  0.51957662  0.70343537  0.92609217     0.30100
H723        H  0.40790364  0.79244959  0.78497594     0.38000
H724        H  0.41948683  0.75380879  0.74932947     0.33400
C725        C  0.30824739  0.63871189  0.08939299    -0.20300
C726        C  0.26631498  0.63586832  0.07439974     0.35900
C727        C  0.23464172  0.66181611  0.09242525    -0.26300
C728        C  0.24404944  0.69104982  0.12484783     0.02300
C729        C  0.28604262  0.69375834  0.14002181     0.27200
C730        C  0.31764705  0.66738002  0.12229671    -0.25400
N731        N  0.25638135  0.60744817  0.03996681    -0.82800
H732        H  0.20250867  0.65969541  0.08074096     0.13000
C733        C  0.20979440  0.71911193  0.14199045     0.02300
N734        N  0.29667452  0.72426200  0.17234058    -0.81400
H735        H  0.35009007  0.67050412  0.13282922     0.17800
C736        C  0.19740324  0.71551308  0.18500770    -0.26200
C737        C  0.16618437  0.74222246  0.20268466     0.35800
C738        C  0.14678223  0.77356099  0.17686484    -0.20200
C739        C  0.15801585  0.77598358  0.13334087    -0.25500
C740        C  0.18968088  0.74952156  0.11582683     0.27200
H741        H  0.21248280  0.69192363  0.20498474     0.12900
N742        N  0.15448354  0.73800688  0.24703277    -0.82800
H743        H  0.14392984  0.80030746  0.11354013     0.17800
N744        N  0.20269427  0.75451391  0.07196775    -0.81400
H745        H  0.12279607  0.72876936  0.24809528     0.33400
H746        H  0.17186517  0.71389922  0.26166665     0.37900
H747        H  0.18507021  0.77828273  0.05707281     0.33400
H748        H  0.23408924  0.76476903  0.07206092     0.30100
H749        H  0.32879648  0.72239603  0.17987263     0.33400
H750        H  0.29168377  0.75429492  0.15931787     0.30100
H751        H  0.26171980  0.57669822  0.05095352     0.38000
H752        H  0.22430746  0.60939140  0.03225252     0.33400
C753        C  0.64793924  0.57468273  0.07820761    -0.20300
C754        C  0.68894572  0.56387138  0.09176814     0.35900
C755        C  0.71432322  0.59475135  0.11052148    -0.26300
C756        C  0.69911040  0.63584737  0.11715532     0.02300
C757        C  0.65755745  0.64640251  0.10492224     0.27200
C758        C  0.63219258  0.61550849  0.08534416    -0.25400
N759        N  0.70460333  0.52151335  0.08623702    -0.82800
H760        H  0.74631083  0.58682261  0.11993776     0.13000
C761        C  0.72779681  0.66679304  0.13718717     0.02300
N762        N  0.64153854  0.68828930  0.11225534    -0.81400
H763        H  0.60065970  0.62352240  0.07457486     0.17800
C764        C  0.73987478  0.70312728  0.11459350    -0.26200
C765        C  0.77276994  0.72907930  0.12955398     0.35800
C766        C  0.79382755  0.71813816  0.16808812    -0.20200
C767        C  0.77931322  0.68314497  0.19175798    -0.25500
C768        C  0.74667891  0.65751786  0.17678725     0.27200
H769        H  0.72507061  0.71001689  0.08410637     0.12900
N770        N  0.78527584  0.76547457  0.10507644    -0.82800
H771        H  0.79400778  0.67490766  0.22191889     0.17800
N772        N  0.73330149  0.62125376  0.20106275    -0.81400
H773        H  0.76485838  0.77015228  0.07921121     0.33400
H774        H  0.81497074  0.75902353  0.09184494     0.37900
H775        H  0.75078031  0.61840575  0.22929779     0.33400
H776        H  0.70188575  0.62625684  0.21019656     0.30100
H777        H  0.61048819  0.69086845  0.10119170     0.33400
H778        H  0.64043097  0.69305425  0.14538931     0.30100
H779        H  0.68589152  0.50157208  0.10506644     0.38000
H780        H  0.73544849  0.51884394  0.09785544     0.33400
C781        C  0.64591557  0.47585679  0.95917519    -0.20300
C782        C  0.63550623  0.43529090  0.94310792     0.35900
C783        C  0.66235990  0.41598588  0.91282994    -0.26300
C784        C  0.69883544  0.43643283  0.89814923     0.02300
C785        C  0.70882365  0.47698086  0.91325244     0.27200
C786        C  0.68209851  0.49642814  0.94314107    -0.25400
N787        N  0.59886974  0.41311459  0.95845337    -0.82800
H788        H  0.65519047  0.38463850  0.90096026     0.13000
C789        C  0.72778914  0.41446908  0.86847970     0.02300
N790        N  0.74664294  0.49781539  0.89883327    -0.81400
H791        H  0.69035642  0.52757658  0.95476465     0.17800
C792        C  0.72819053  0.42575245  0.82512745    -0.26200
C793        C  0.75780066  0.40805618  0.79678913     0.35800
C794        C  0.78804280  0.37887011  0.81219136    -0.20200
C795        C  0.78650062  0.36679379  0.85562112    -0.25500
C796        C  0.75684487  0.38451201  0.88393278     0.27200
H797        H  0.70566757  0.44879232  0.81334388     0.12900
N798        N  0.75668632  0.41965793  0.75245079    -0.82800
H799        H  0.80934319  0.34443107  0.86800896     0.17800
N800        N  0.75658672  0.37290080  0.92849054    -0.81400
H801        H  0.72684153  0.41205193  0.74044000     0.33400
H802        H  0.76045163  0.45240493  0.75032917     0.37900
H803        H  0.77981081  0.35019498  0.93467972     0.33400
H804        H  0.76471838  0.39968372  0.94624151     0.30100
H805        H  0.74931760  0.52768552  0.91286594     0.33400
H806        H  0.77243690  0.48014271  0.90965650     0.30100
H807        H  0.57230014  0.42896181  0.94673545     0.38000
H808        H  0.59768172  0.38266337  0.94552376     0.33400
C809        C  0.15039725  0.49210755  0.77331813    -0.20300
C810        C  0.13242859  0.45998135  0.79905874     0.35900
C811        C  0.15815369  0.43813898  0.82843757    -0.26300
C812        C  0.20113880  0.44787881  0.83242684     0.02300
C813        C  0.21890675  0.48031419  0.80750281     0.27200
C814        C  0.19335691  0.50225611  0.77846103    -0.25400
N815        N  0.08841719  0.44954593  0.79525814    -0.82800
H816        H  0.14490782  0.41299990  0.84781856     0.13000
C817        C  0.22825961  0.42224014  0.86069638     0.02300
N818        N  0.26320688  0.48981094  0.81080688    -0.81400
H819        H  0.20760573  0.52653486  0.75870375     0.17800
C820        C  0.25013187  0.38797812  0.84306940    -0.26200
C821        C  0.27881576  0.36432765  0.86763380     0.35800
C822        C  0.28636848  0.37596375  0.91091234    -0.20200
C823        C  0.26327969  0.40993647  0.92853338    -0.25500
C824        C  0.23433435  0.43314337  0.90386720     0.27200
H825        H  0.24502161  0.37996296  0.80971595     0.12900
N826        N  0.30079041  0.32943453  0.84818656    -0.82800
H827        H  0.26815234  0.41892055  0.96163308     0.17800
N828        N  0.21125575  0.46783460  0.92235846    -0.81400
H829        H  0.29390535  0.32750059  0.81549297     0.33400
H830        H  0.28883602  0.30177515  0.86189942     0.37900
H831        H  0.21893988  0.47139549  0.95471953     0.33400
H832        H  0.22098690  0.49550072  0.90696144     0.30100
H833        H  0.27158437  0.51383229  0.78941978     0.33400
H834        H  0.26866332  0.50159230  0.84157707     0.30100
H835        H  0.07100752  0.47591008  0.80515847     0.38000
H836        H  0.08049379  0.42490901  0.81609643     0.33400
C837        C  0.39196398  0.26335578  0.93102077    -0.20300
C838        C  0.43555431  0.25594890  0.93840349     0.35900
C839        C  0.45721022  0.22648388  0.91268719    -0.26300
C840        C  0.43622892  0.20433981  0.88025666     0.02300
C841        C  0.39232740  0.20945487  0.87499919     0.27200
C842        C  0.37063052  0.23840147  0.90083925    -0.25400
N843        N  0.45828466  0.27983560  0.96998931    -0.82800
H844        H  0.49091501  0.22194700  0.91670863     0.13000
C845        C  0.46064152  0.17936819  0.84874717     0.02300
N846        N  0.37034121  0.18688280  0.84185104    -0.81400
H847        H  0.33714049  0.24319453  0.89561256     0.17800
C848        C  0.45130540  0.13650253  0.84350199    -0.26200
C849        C  0.46628450  0.11415899  0.80786687     0.35800
C850        C  0.49171391  0.13491971  0.77698637    -0.20200
C851        C  0.50423308  0.17682830  0.78460653    -0.25500
C852        C  0.48838610  0.19950758  0.81983598     0.27200
H853        H  0.43031232  0.12091950  0.86598301     0.12900
N854        N  0.45458493  0.07073292  0.80279965    -0.82800
H855        H  0.52408553  0.19296458  0.76152210     0.17800
N856        N  0.49839031  0.24352246  0.82499130    -0.81400
H857        H  0.46495400  0.05406673  0.82972674     0.33400
H858        H  0.42159996  0.06901821  0.80190690     0.37900
H859        H  0.51935402  0.25347928  0.80110458     0.33400
H860        H  0.47052188  0.26077145  0.82065572     0.30100
H861        H  0.33809835  0.19411582  0.84237495     0.33400
H862        H  0.38193239  0.19748652  0.81234730     0.30100
H863        H  0.44723148  0.27035832  0.00008441     0.38000
H864        H  0.49044823  0.27224985  0.96925002     0.33400
C865        C  0.60581489  0.49838755  0.30880705    -0.20300
C866        C  0.63246407  0.52004508  0.33789787     0.35900
C867        C  0.66232952  0.49717523  0.36195267    -0.26300
C868        C  0.66689234  0.45337621  0.35706058     0.02300
C869        C  0.64294309  0.43233878  0.32558963     0.27200
C870        C  0.61262074  0.45492258  0.30199396    -0.25400
N871        N  0.62872929  0.56496039  0.34364086    -0.82800
H872        H  0.68088854  0.51332795  0.38601960     0.13000
C873        C  0.69202584  0.42921548  0.38903999     0.02300
N874        N  0.64870084  0.38777891  0.31870174    -0.81400
H875        H  0.59317786  0.43794921  0.27929250     0.17800
C876        C  0.67104225  0.39887372  0.41374226    -0.26200
C877        C  0.69136000  0.37773970  0.44721883     0.35800
C878        C  0.73415921  0.38676266  0.45676773    -0.20200
C879        C  0.75556233  0.41675324  0.43140708    -0.25500
C880        C  0.73492786  0.43796972  0.39751800     0.27200
H881        H  0.63789445  0.39249404  0.40797263     0.12900
N882        N  0.66747378  0.34841415  0.47248256    -0.82800
H883        H  0.78837163  0.42378028  0.43810686     0.17800
N884        N  0.75717666  0.46844706  0.37188487    -0.81400
H885        H  0.65603508  0.32481011  0.45216822     0.33400
H886        H  0.64158755  0.36440925  0.48565133     0.37900
H887        H  0.78844991  0.47127537  0.38219010     0.33400
H888        H  0.75835670  0.45687892  0.34052343     0.30100
H889        H  0.62842872  0.37689665  0.29473200     0.33400
H890        H  0.67949782  0.38326790  0.30737397     0.30100
H891        H  0.63734521  0.57927243  0.31471720     0.38000
H892        H  0.65010691  0.57571090  0.36666299     0.33400
C893        C  0.40565479  0.73402921  0.47127054    -0.20300
C894        C  0.41125693  0.68970523  0.47102327     0.35900
C895        C  0.42747946  0.66995829  0.43429277    -0.26300
C896        C  0.43893465  0.69343257  0.39812220     0.02300
C897        C  0.43264482  0.73744260  0.39762109     0.27200
C898        C  0.41603729  0.75741124  0.43433542    -0.25400
N899        N  0.40232256  0.66503717  0.50862045    -0.82800
H900        H  0.43276066  0.63610685  0.43434170     0.13000
C901        C  0.46057493  0.67094324  0.36289707     0.02300
N902        N  0.44307895  0.76149954  0.35999723    -0.81400
H903        H  0.41149695  0.79135008  0.43427866     0.17800
C904        C  0.43657595  0.65115833  0.33113309    -0.26200
C905        C  0.45499800  0.62133249  0.30343445     0.35800
C906        C  0.49846416  0.61127610  0.30742309    -0.20200
C907        C  0.52285978  0.63388099  0.33728720    -0.25500
C908        C  0.50426876  0.66317233  0.36535731     0.27200
H909        H  0.40285519  0.65696420  0.32954139     0.12900
N910        N  0.42874954  0.59974667  0.27324212    -0.82800
H911        H  0.55627307  0.62714410  0.34038013     0.17800
N912        N  0.52898726  0.68300542  0.39828605    -0.81400
H913        H  0.41485878  0.62232885  0.25326828     0.33400
H914        H  0.40463163  0.58448596  0.29015842     0.37900
H915        H  0.56043209  0.67294150  0.39667157     0.33400
H916        H  0.52916348  0.71547938  0.39225499     0.30100
H917        H  0.43601195  0.79344670  0.36470581     0.33400
H918        H  0.47574317  0.75958583  0.35540437     0.30100
H919        H  0.42390530  0.67399759  0.53223241     0.38000
H920        H  0.40754661  0.63291562  0.50280646     0.33400
loop_ 
_geom_bond_atom_site_label_1 
_geom_bond_atom_site_label_2 
_geom_bond_distance 
_geom_bond_site_symmetry_2 
_ccdc_geom_bond_type 
C1            N2   1.361       .  A
C1            N6   1.360       .  A
C1          C906   1.491       .  S
N2            C3   1.358       .  A
C3            N4   1.358       .  A
C3          C865   1.495       .  S
N4            C5   1.358       .  A
C5            N6   1.358       .  A
C5           C47   1.462       .  S
C7            N8   1.358       .  A
C7           N12   1.360       .  A
C7          C837   1.484       .  S
N8            C9   1.356       .  A
C9           N10   1.357       .  A
C9           C58   1.457   1_556  S
N10          C11   1.357       .  A
C11          N12   1.356       .  A
C11         C822   1.493       .  S
C13          N14   1.357   1_556  A
C13          N18   1.353   1_556  A
C13         C781   1.488       .  S
N14          C15   1.362       .  A
C15          N16   1.359       .  A
C15          C51   1.464       .  S
N16          C17   1.356       .  A
C17          N18   1.352       .  A
C17         C753   1.464       .  S
C19          N20   1.357       .  A
C19          N24   1.352       .  A
C19         C710   1.492   1_554  S
N20          C21   1.360       .  A
C21          N22   1.371       .  A
C21         C725   1.485       .  S
N22          C23   1.368       .  A
C23          N24   1.356       .  A
C23          C50   1.480       .  S
C25          N26   1.354       .  A
C25          N30   1.361       .  A
C25         C682   1.494       .  S
N26          C27   1.354       .  A
C27          N28   1.357       .  A
C27          C40   1.465       .  S
N28          C29   1.361       .  A
C29          N30   1.363       .  A
C29         C654   1.487       .  S
C31          N32   1.349       .  A
C31          N36   1.352       .  A
C31         C598   1.477       .  S
N32          C33   1.356       .  A
C33          N34   1.371       .  A
C33          C44   1.476       .  S
N34          C35   1.374       .  A
C35          N36   1.359       .  A
C35         C626   1.494       .  S
O37         Ni43   1.918       .  S
O37          C58   1.269       .  A
O38         Ni61   1.917       .  S
O38          C47   1.271       .  A
O39         Ni43   1.876       .  S
O39         Ni61   1.889       .  S
O39         Ni55   1.902       .  S
O39          H62   0.966       .  S
C40          O57   1.281       .  A
C40          O49   1.280       .  A
O41         Ni60   1.927       .  S
O41          C47   1.271       .  A
O42         Ni60   1.902       .  S
O42          C44   1.268       .  A
Ni43         O46   1.912       .  S
Ni43         O48   1.903       .  S
C44          O54   1.274       .  A
O45         Ni61   1.934       .  S
O45          C51   1.284       .  A
O46          C51   1.279       .  A
O48          C50   1.268       .  A
O49         Ni60   1.920       .  S
C50          O56   1.274       .  A
H52          O53   0.966       .  S
O53         Ni61   1.907       .  S
O53         Ni55   1.900       .  S
O53         Ni60   1.881       .  S
O54         Ni55   1.950       .  S
Ni55         O59   1.916       .  S
Ni55         O57   1.928       .  S
O56         Ni61   1.953       .  S
C58          O59   1.272       .  A
C63          N64   1.355       .  A
C63          N68   1.349       .  A
C63         C850   1.485       .  S
N64          C65   1.360       .  A
C65          N66   1.373       .  A
C65         C570   1.485       .  S
N66          C67   1.370       .  A
C67          N68   1.353       .  A
C67         C112   1.478       .  S
C69          N70   1.353       .  A
C69          N74   1.354       .  A
C69         C893   1.483       .  S
N70          C71   1.358       .  A
C71          N72   1.370       .  A
C71         C106   1.479       .  S
N72          C73   1.371       .  A
C73          N74   1.359       .  A
C73         C529   1.493       .  S
C75          N76   1.360       .  A
C75          N80   1.361       .  A
C75         C697   1.488       .  S
N76          C77   1.357       .  A
C77          N78   1.356       .  A
C77         C120   1.458       .  S
N78          C79   1.354       .  A
C79          N80   1.356       .  A
C79         C501   1.472       .  S
C81          N82   1.360       .  A
C81          N86   1.352       .  A
C81         C473   1.494       .  S
N82          C83   1.362       .  A
C83          N84   1.364       .  A
C83         C102   1.472       .  S
N84          C85   1.360       .  A
C85          N86   1.354       .  A
C85         C445   1.479       .  S
C87          N88   1.360       .  A
C87          N92   1.359       .  A
C87         C585   1.489       .  S
N88          C89   1.356       .  A
C89          N90   1.357   1_545  A
C89         C109   1.461   1_545  S
N90          C91   1.357   1_565  A
C91          N92   1.359       .  A
C91         C430   1.495   1_545  S
C93          N94   1.354       .  A
C93          N98   1.360   1_545  A
C93         C402   1.494   1_545  S
N94          C95   1.355       .  A
C95          N96   1.358       .  A
C95         C361   1.475       .  S
N96          C97   1.360       .  A
C97          N98   1.364   1_545  A
C97         C113   1.469   1_545  S
O99        Ni105   1.925       .  S
O99         C120   1.270       .  A
O100       Ni123   1.907   1_545  S
O100        C109   1.270   1_545  A
O101       Ni105   1.882       .  S
O101       Ni123   1.893       .  S
O101       Ni117   1.900       .  S
O101        H124   0.966       .  S
C102        O119   1.279       .  A
C102        O111   1.281       .  A
O103       Ni122   1.937       .  S
O103        C109   1.275       .  A
O104       Ni122   1.910       .  S
O104        C106   1.270       .  A
Ni105       O108   1.917       .  S
Ni105       O110   1.903   1_565  S
C106        O116   1.274       .  A
O107       Ni123   1.934       .  S
O107        C113   1.283       .  A
O108        C113   1.278       .  A
O110        C112   1.269       .  A
O111       Ni122   1.931       .  S
C112        O118   1.272       .  A
H114        O115   0.967       .  S
O115       Ni123   1.905       .  S
O115       Ni117   1.897       .  S
O115       Ni122   1.883       .  S
O116       Ni117   1.946       .  S
Ni117       O121   1.911       .  S
Ni117       O119   1.925       .  S
O118       Ni123   1.948   1_545  S
C120        O121   1.270       .  A
C125        N126   1.353       .  A
C125        N130   1.358       .  A
C125        C641   1.482       .  S
N126        C127   1.353   1_455  A
C127        N128   1.365       .  A
C127        C171   1.466       .  S
N128        C129   1.367   1_554  A
C129        N130   1.362   1_656  A
C129        C346   1.488       .  S
C131        N132   1.356       .  A
C131        N136   1.369       .  A
C131        C738   1.496       .  S
N132        C133   1.356       .  A
C133        N134   1.358       .  A
C133        C417   1.491       .  S
N134        C135   1.359       .  A
C135        N136   1.370       .  A
C135        C164   1.478       .  S
C137        N138   1.358       .  A
C137        N142   1.369       .  A
C137        C305   1.482       .  S
N138        C139   1.354       .  A
C139        N140   1.354   1_545  A
C139        C486   1.491       .  S
N140        C141   1.360   1_565  A
C141        N142   1.367       .  A
C141        C174   1.483   1_545  S
C143        N144   1.355       .  A
C143        N148   1.353       .  A
C143        C766   1.488       .  S
N144        C145   1.358       .  A
C145        N146   1.367       .  A
C145        C182   1.465       .  S
N146        C147   1.365       .  A
C147        N148   1.352       .  A
C147        C290   1.485       .  S
C149        N150   1.367       .  A
C149        N154   1.360       .  A
C149        C613   1.490       .  S
N150        C151   1.364       .  A
C151        N152   1.352   1_545  A
C151        C175   1.466   1_545  S
N152        C153   1.354   1_564  A
C153        N154   1.358   1_556  A
C153        C514   1.472   1_545  S
C155        N156   1.356       .  A
C155        N160   1.368   1_456  A
C155        C262   1.479   1_455  S
N156        C157   1.352       .  A
C157        N158   1.354       .  A
C157        C389   1.496       .  S
N158        C159   1.361   1_556  A
C159        N160   1.367   1_455  A
C159        C168   1.480       .  S
O161       Ni167   1.934       .  S
O161        C182   1.273       .  A
O162       Ni185   1.914   1_545  S
O162        C171   1.270       .  A
O163       Ni167   1.896       .  S
O163       Ni185   1.908       .  S
O163       Ni179   1.921       .  S
O163        H186   0.966       .  S
C164        O181   1.278       .  A
C164        O173   1.275       .  A
O165       Ni184   1.929   1_545  S
O165        C171   1.271   1_455  A
O166       Ni184   1.900       .  S
O166        C168   1.269       .  A
Ni167       O170   1.931       .  S
Ni167       O172   1.898       .  S
C168        O178   1.276   1_455  A
O169       Ni185   1.921   1_545  S
O169        C175   1.275   1_545  A
O170        C175   1.277       .  A
O172        C174   1.270       .  A
O173       Ni184   1.926       .  S
C174        O180   1.279   1_565  A
H176        O177   0.966       .  S
O177       Ni185   1.925       .  S
O177       Ni179   1.912       .  S
O177       Ni184   1.899   1_655  S
O178       Ni179   1.948       .  S
Ni179       O183   1.909       .  S
Ni179       O181   1.941   1_655  S
O180       Ni185   1.956   1_545  S
C182        O183   1.271       .  A
C187        N188   1.372       .  A
C187        N192   1.354       .  A
C187        C542   1.498       .  S
N188        C189   1.373       .  A
C189        N190   1.359       .  A
C189        C237   1.481       .  S
N190        C191   1.357       .  A
C191        N192   1.354       .  A
C191        C809   1.484       .  S
C193        N194   1.354       .  A
C193        N198   1.365       .  A
C193        C557   1.494       .  S
N194        C195   1.355       .  A
C195        N196   1.363       .  A
C195        C878   1.494       .  S
N196        C197   1.364       .  A
C197        N198   1.367       .  A
C197        C226   1.479       .  S
C199        N200   1.354       .  A
C199        N204   1.354       .  A
C199        C458   1.473       .  S
N200        C201   1.356       .  A
C201        N202   1.366       .  A
C201        C249   1.478       .  S
N202        C203   1.366       .  A
C203        N204   1.355       .  A
C203        C233   1.466       .  S
C205        N206   1.356       .  A
C205        N210   1.356       .  A
C205        C374   1.493       .  S
N206        C207   1.358   1_455  A
C207        N208   1.367       .  A
C207        C244   1.472       .  S
N208        C209   1.367       .  A
C209        N210   1.357   1_655  A
C209        C318   1.486       .  S
C211        N212   1.355       .  A
C211        N216   1.370       .  A
C211        C333   1.478       .  S
N212        C213   1.352       .  A
C213        N214   1.355       .  A
C213        C794   1.488       .  S
N214        C215   1.361       .  A
C215        N216   1.369       .  A
C215        C230   1.485       .  S
C217        N218   1.369   1_455  A
C217        N222   1.356       .  A
C217        C277   1.481   1_455  S
N218        C219   1.368   1_655  A
C219        N220   1.361       .  A
C219        C236   1.480       .  S
N220        C221   1.353       .  A
C221        N222   1.351       .  A
C221        C669   1.481       .  S
O223       Ni229   1.936       .  S
O223        C244   1.274   1_455  A
O224       Ni247   1.911       .  S
O224        C233   1.270       .  A
O225       Ni229   1.901   1_655  S
O225       Ni247   1.916       .  S
O225       Ni241   1.932       .  S
O225        H248   0.967       .  S
C226        O243   1.280       .  A
C226        O235   1.278       .  A
O227       Ni246   1.935       .  S
O227        C233   1.273       .  A
O228       Ni246   1.907       .  S
O228        C230   1.271       .  A
Ni229       O232   1.936       .  S
Ni229       O234   1.902       .  S
C230        O240   1.276       .  A
O231       Ni247   1.932   1_455  S
O231        C237   1.275       .  A
O232        C237   1.277       .  A
O234        C236   1.271       .  A
O235       Ni246   1.932       .  S
C236        O242   1.277   1_455  A
H238        O239   0.965       .  S
O239       Ni247   1.920       .  S
O239       Ni241   1.904       .  S
O239       Ni246   1.895       .  S
O240       Ni241   1.951       .  S
Ni241       O245   1.915       .  S
Ni241       O243   1.940       .  S
O242       Ni247   1.949       .  S
C244        O245   1.272       .  A
C249        C250   1.410       .  A
C249        C254   1.400       .  A
C250        C251   1.407       .  A
C250        N255   1.438       .  S
C251        C252   1.404       .  A
C251        H256   1.083       .  S
C252        C257   1.497       .  S
C252        C253   1.419       .  A
C253        C254   1.410       .  A
C253        N258   1.438   1_655  S
C254        H259   1.084       .  S
N255        H275   1.046       .  S
N255        H276   1.046       .  S
C257        C260   1.403       .  A
C257        C264   1.418       .  A
N258        H273   1.046       .  S
N258        H274   1.046   1_455  S
C260        C261   1.404   1_655  A
C260        H265   1.084   1_655  S
C261        C262   1.412   1_455  A
C261        N266   1.438       .  S
C262        C263   1.401       .  A
C263        C264   1.412       .  A
C263        H267   1.084       .  S
C264        N268   1.438       .  S
N266        H269   1.046       .  S
N266        H270   1.045       .  S
N268        H271   1.046       .  S
N268        H272   1.046       .  S
C277        C278   1.413   1_655  A
C277        C282   1.402       .  A
C278        C279   1.407   1_455  A
C278        N283   1.438       .  S
C279        C280   1.401       .  A
C279        H284   1.084   1_655  S
C280        C285   1.491       .  S
C280        C281   1.415       .  A
C281        C282   1.411       .  A
C281        N286   1.437       .  S
C282        H287   1.084       .  S
N283        H303   1.045       .  S
N283        H304   1.046       .  S
C285        C288   1.401       .  A
C285        C292   1.413       .  A
N286        H301   1.046       .  S
N286        H302   1.045       .  S
C288        C289   1.403       .  A
C288        H293   1.084       .  S
C289        C290   1.414       .  A
C289        N294   1.439       .  S
C290        C291   1.405       .  A
C291        C292   1.414       .  A
C291        H295   1.083       .  S
C292        N296   1.437       .  S
N294        H297   1.046       .  S
N294        H298   1.045       .  S
N296        H299   1.046       .  S
N296        H300   1.046       .  S
C305        C306   1.415       .  A
C305        C310   1.401       .  A
C306        C307   1.409       .  A
C306        N311   1.438       .  S
C307        C308   1.402       .  A
C307        H312   1.084       .  S
C308        C313   1.491       .  S
C308        C309   1.414       .  A
C309        C310   1.409       .  A
C309        N314   1.437       .  S
C310        H315   1.084       .  S
N311        H331   1.046       .  S
N311        H332   1.046       .  S
C313        C316   1.402       .  A
C313        C320   1.412       .  A
N314        H329   1.046   1_655  S
N314        H330   1.045   1_655  S
C316        C317   1.403       .  A
C316        H321   1.084       .  S
C317        C318   1.412       .  A
C317        N322   1.438       .  S
C318        C319   1.407       .  A
C319        C320   1.416       .  A
C319        H323   1.083       .  S
C320        N324   1.437       .  S
N322        H325   1.046       .  S
N322        H326   1.046       .  S
N324        H327   1.046       .  S
N324        H328   1.046       .  S
C333        C334   1.408       .  A
C333        C338   1.405       .  A
C334        C335   1.410       .  A
C334        N339   1.437       .  S
C335        C336   1.408       .  A
C335        H340   1.083       .  S
C336        C341   1.497       .  S
C336        C337   1.411       .  A
C337        C338   1.409       .  A
C337        N342   1.437       .  S
C338        H343   1.084       .  S
N339        H359   1.045       .  S
N339        H360   1.046       .  S
C341        C344   1.409       .  A
C341        C348   1.410       .  A
N342        H357   1.046       .  S
N342        H358   1.045       .  S
C344        C345   1.413       .  A
C344        H349   1.083       .  S
C345        C346   1.412       .  A
C345        N350   1.437       .  S
C346        C347   1.406       .  A
C347        C348   1.408       .  A
C347        H351   1.084   1_655  S
C348        N352   1.438   1_655  S
N350        H353   1.046       .  S
N350        H354   1.045       .  S
N352        H355   1.045       .  S
N352        H356   1.046   1_455  S
C361        C362   1.412       .  A
C361        C366   1.406       .  A
C362        C363   1.397       .  A
C362        N367   1.439       .  S
C363        C364   1.399       .  A
C363        H368   1.084       .  S
C364        C369   1.477       .  S
C364        C365   1.409       .  A
C365        C366   1.409       .  A
C365        N370   1.437       .  S
C366        H371   1.084       .  S
N367        H387   1.046       .  S
N367        H388   1.046       .  S
C369        C372   1.400       .  A
C369        C376   1.405       .  A
N370        H385   1.046       .  S
N370        H386   1.046       .  S
C372        C373   1.408       .  A
C372        H377   1.084       .  S
C373        C374   1.420       .  A
C373        N378   1.438       .  S
C374        C375   1.409       .  A
C375        C376   1.401       .  A
C375        H379   1.083       .  S
C376        N380   1.438       .  S
N378        H381   1.046       .  S
N378        H382   1.046       .  S
N380        H383   1.045       .  S
N380        H384   1.046       .  S
C389        C390   1.420       .  A
C389        C394   1.410       .  A
C390        C391   1.404       .  A
C390        N395   1.438       .  S
C391        C392   1.401       .  A
C391        H396   1.084       .  S
C392        C397   1.487       .  S
C392        C393   1.410       .  A
C393        C394   1.407       .  A
C393        N398   1.438       .  S
C394        H399   1.083       .  S
N395        H415   1.045       .  S
N395        H416   1.046       .  S
C397        C400   1.400       .  A
C397        C404   1.410       .  A
N398        H413   1.046   1_565  S
N398        H414   1.045       .  S
C400        C401   1.404   1_565  A
C400        H405   1.084   1_565  S
C401        C402   1.420   1_545  A
C401        N406   1.438       .  S
C402        C403   1.408       .  A
C403        C404   1.408       .  A
C403        H407   1.083       .  S
C404        N408   1.438       .  S
N406        H409   1.046       .  S
N406        H410   1.046       .  S
N408        H411   1.046       .  S
N408        H412   1.046       .  S
C417        C418   1.417       .  A
C417        C422   1.409       .  A
C418        C419   1.408       .  A
C418        N423   1.437       .  S
C419        C420   1.402       .  A
C419        H424   1.084       .  S
C420        C425   1.483       .  S
C420        C421   1.408       .  A
C421        C422   1.402       .  A
C421        N426   1.439       .  S
C422        H427   1.083       .  S
N423        H443   1.046       .  S
N423        H444   1.046       .  S
C425        C428   1.401       .  A
C425        C432   1.408       .  A
N426        H441   1.046       .  S
N426        H442   1.046       .  S
C428        C429   1.407       .  A
C428        H433   1.084       .  S
C429        C430   1.420       .  A
C429        N434   1.438       .  S
C430        C431   1.409   1_565  A
C431        C432   1.403   1_545  A
C431        H435   1.083       .  S
C432        N436   1.438   1_565  S
N434        H437   1.046       .  S
N434        H438   1.046       .  S
N436        H439   1.046       .  S
N436        H440   1.046   1_545  S
C445        C446   1.413       .  A
C445        C450   1.404       .  A
C446        C447   1.411       .  A
C446        N451   1.437       .  S
C447        C448   1.403       .  A
C447        H452   1.084       .  S
C448        C453   1.478       .  S
C448        C449   1.407       .  A
C449        C450   1.398       .  A
C449        N454   1.439       .  S
C450        H455   1.084       .  S
N451        H471   1.046       .  S
N451        H472   1.046       .  S
C453        C456   1.402       .  A
C453        C460   1.407       .  A
N454        H469   1.046       .  S
N454        H470   1.046       .  S
C456        C457   1.402       .  A
C456        H461   1.084       .  S
C457        C458   1.411       .  A
C457        N462   1.438       .  S
C458        C459   1.405       .  A
C459        C460   1.406       .  A
C459        H463   1.084       .  S
C460        N464   1.437       .  S
N462        H465   1.046       .  S
N462        H466   1.046       .  S
N464        H467   1.046       .  S
N464        H468   1.045       .  S
C473        C474   1.420       .  A
C473        C478   1.409       .  A
C474        C475   1.400       .  A
C474        N479   1.433       .  S
C475        C476   1.397       .  A
C475        H480   1.084       .  S
C476        C481   1.478       .  S
C476        C477   1.407       .  A
C477        C478   1.408       .  A
C477        N482   1.437       .  S
C478        H483   1.083       .  S
N479        H499   1.046       .  S
N479        H500   1.046       .  S
C481        C484   1.399       .  A
C481        C488   1.407       .  A
N482        H497   1.046       .  S
N482        H498   1.046   1_565  S
C484        C485   1.405       .  A
C484        H489   1.084       .  S
C485        C486   1.416   1_565  A
C485        N490   1.432       .  S
C486        C487   1.409       .  A
C487        C488   1.405   1_545  A
C487        H491   1.083       .  S
C488        N492   1.438   1_565  S
N490        H493   1.046       .  S
N490        H494   1.046       .  S
N492        H495   1.046       .  S
N492        H496   1.046       .  S
C501        C502   1.408       .  A
C501        C506   1.402       .  A
C502        C503   1.399       .  A
C502        N507   1.433       .  S
C503        C504   1.402       .  A
C503        H508   1.084       .  S
C504        C509   1.482       .  S
C504        C505   1.412       .  A
C505        C506   1.407       .  A
C505        N510   1.437       .  S
C506        H511   1.084       .  S
N507        H527   1.045       .  S
N507        H528   1.046       .  S
C509        C512   1.401       .  A
C509        C516   1.412       .  A
N510        H525   1.046       .  S
N510        H526   1.046       .  S
C512        C513   1.401       .  A
C512        H517   1.084       .  S
C513        C514   1.412       .  A
C513        N518   1.439   1_556  S
C514        C515   1.401   1_565  A
C515        C516   1.407   1_545  A
C515        H519   1.084       .  S
C516        N520   1.437   1_565  S
N518        H521   1.046       .  S
N518        H522   1.046       .  S
N520        H523   1.046       .  S
N520        H524   1.046   1_545  S
C529        C530   1.416       .  A
C529        C534   1.406       .  A
C530        C531   1.407       .  A
C530        N535   1.437       .  S
C531        C532   1.401       .  A
C531        H536   1.084       .  S
C532        C537   1.497       .  S
C532        C533   1.414       .  A
C533        C534   1.417       .  A
C533        N538   1.436       .  S
C534        H539   1.083       .  S
N535        H555   1.046       .  S
N535        H556   1.046       .  S
C537        C540   1.400       .  A
C537        C544   1.414       .  A
N538        H553   1.046       .  S
N538        H554   1.045       .  S
C540        C541   1.411       .  A
C540        H545   1.084       .  S
C541        C542   1.421       .  A
C541        N546   1.438       .  S
C542        C543   1.405       .  A
C543        C544   1.414       .  A
C543        H547   1.083       .  S
C544        N548   1.437       .  S
N546        H549   1.046       .  S
N546        H550   1.045       .  S
N548        H551   1.046       .  S
N548        H552   1.046       .  S
C557        C558   1.414       .  A
C557        C562   1.408       .  A
C558        C559   1.413       .  A
C558        N563   1.438       .  S
C559        C560   1.409       .  A
C559        H564   1.083       .  S
C560        C565   1.503       .  S
C560        C561   1.411       .  A
C561        C562   1.409       .  A
C561        N566   1.438       .  S
C562        H567   1.084       .  S
N563        H583   1.046       .  S
N563        H584   1.046       .  S
C565        C568   1.410       .  A
C565        C572   1.413       .  A
N566        H581   1.046       .  S
N566        H582   1.046       .  S
C568        C569   1.413       .  A
C568        H573   1.083       .  S
C569        C570   1.409       .  A
C569        N574   1.437       .  S
C570        C571   1.405       .  A
C571        C572   1.409       .  A
C571        H575   1.084       .  S
C572        N576   1.437       .  S
N574        H577   1.046       .  S
N574        H578   1.045       .  S
N576        H579   1.046       .  S
N576        H580   1.046       .  S
C585        C586   1.418       .  A
C585        C590   1.409       .  A
C586        C587   1.405       .  A
C586        N591   1.438       .  S
C587        C588   1.399       .  A
C587        H592   1.084       .  S
C588        C593   1.475       .  S
C588        C589   1.406       .  A
C589        C590   1.404       .  A
C589        N594   1.438       .  S
C590        H595   1.083       .  S
N591        H611   1.046       .  S
N591        H612   1.046       .  S
C593        C596   1.400       .  A
C593        C600   1.408       .  A
N594        H609   1.046       .  S
N594        H610   1.045       .  S
C596        C597   1.407       .  A
C596        H601   1.084       .  S
C597        C598   1.414       .  A
C597        N602   1.438       .  S
C598        C599   1.403       .  A
C599        C600   1.402       .  A
C599        H603   1.084       .  S
C600        N604   1.438       .  S
N602        H605   1.046       .  S
N602        H606   1.046       .  S
N604        H607   1.046       .  S
N604        H608   1.045       .  S
C613        C614   1.415       .  A
C613        C618   1.403       .  A
C614        C615   1.412       .  A
C614        N619   1.437   1_554  S
C615        C616   1.405       .  A
C615        H620   1.083       .  S
C616        C621   1.499       .  S
C616        C617   1.415       .  A
C617        C618   1.409       .  A
C617        N622   1.438       .  S
C618        H623   1.084       .  S
N619        H639   1.046       .  S
N619        H640   1.046       .  S
C621        C624   1.401       .  A
C621        C628   1.415       .  A
N622        H637   1.046       .  S
N622        H638   1.045       .  S
C624        C625   1.404       .  A
C624        H629   1.084       .  S
C625        C626   1.418       .  A
C625        N630   1.439       .  S
C626        C627   1.407       .  A
C627        C628   1.417       .  A
C627        H631   1.083       .  S
C628        N632   1.437       .  S
N630        H633   1.046       .  S
N630        H634   1.045       .  S
N632        H635   1.046       .  S
N632        H636   1.046       .  S
C641        C642   1.416       .  A
C641        C646   1.403       .  A
C642        C643   1.407       .  A
C642        N647   1.438       .  S
C643        C644   1.401       .  A
C643        H648   1.084       .  S
C644        C649   1.483       .  S
C644        C645   1.411       .  A
C645        C646   1.404       .  A
C645        N650   1.438       .  S
C646        H651   1.084       .  S
N647        H667   1.046       .  S
N647        H668   1.046       .  S
C649        C652   1.401       .  A
C649        C656   1.409       .  A
N650        H665   1.046       .  S
N650        H666   1.046       .  S
C652        C653   1.406       .  A
C652        H657   1.084       .  S
C653        C654   1.417       .  A
C653        N658   1.438       .  S
C654        C655   1.407       .  A
C655        C656   1.406       .  A
C655        H659   1.084       .  S
C656        N660   1.438       .  S
N658        H661   1.046       .  S
N658        H662   1.046       .  S
N660        H663   1.046       .  S
N660        H664   1.045       .  S
C669        C670   1.414       .  A
C669        C674   1.406       .  A
C670        C671   1.403       .  A
C670        N675   1.438       .  S
C671        C672   1.399       .  A
C671        H676   1.084       .  S
C672        C677   1.476       .  S
C672        C673   1.407       .  A
C673        C674   1.408       .  A
C673        N678   1.438       .  S
C674        H679   1.084       .  S
N675        H695   1.046       .  S
N675        H696   1.046       .  S
C677        C680   1.396       .  A
C677        C684   1.406       .  A
N678        H693   1.046       .  S
N678        H694   1.045       .  S
C680        C681   1.406       .  A
C680        H685   1.084       .  S
C681        C682   1.424       .  A
C681        N686   1.438       .  S
C682        C683   1.408       .  A
C683        C684   1.405       .  A
C683        H687   1.083       .  S
C684        N688   1.438       .  S
N686        H689   1.046       .  S
N686        H690   1.046       .  S
N688        H691   1.045       .  S
N688        H692   1.045       .  S
C697        C698   1.416       .  A
C697        C702   1.407       .  A
C698        C699   1.403       .  A
C698        N703   1.432       .  S
C699        C700   1.400       .  A
C699        H704   1.084       .  S
C700        C705   1.480       .  S
C700        C701   1.408       .  A
C701        C702   1.404       .  A
C701        N706   1.438       .  S
C702        H707   1.083       .  S
N703        H723   1.046       .  S
N703        H724   1.046       .  S
C705        C708   1.399       .  A
C705        C712   1.409       .  A
N706        H721   1.046       .  S
N706        H722   1.046       .  S
C708        C709   1.407       .  A
C708        H713   1.084       .  S
C709        C710   1.421       .  A
C709        N714   1.438       .  S
C710        C711   1.406       .  A
C711        C712   1.404       .  A
C711        H715   1.083       .  S
C712        N716   1.438       .  S
N714        H717   1.046       .  S
N714        H718   1.046       .  S
N716        H719   1.046       .  S
N716        H720   1.046       .  S
C725        C726   1.411       .  A
C725        C730   1.403       .  A
C726        C727   1.411       .  A
C726        N731   1.437       .  S
C727        C728   1.404       .  A
C727        H732   1.084       .  S
C728        C733   1.498       .  S
C728        C729   1.415       .  A
C729        C730   1.414       .  A
C729        N734   1.437       .  S
C730        H735   1.084       .  S
N731        H751   1.046       .  S
N731        H752   1.046       .  S
C733        C736   1.402       .  A
C733        C740   1.414       .  A
N734        H749   1.046       .  S
N734        H750   1.046       .  S
C736        C737   1.411       .  A
C736        H741   1.084       .  S
C737        C738   1.418       .  A
C737        N742   1.438       .  S
C738        C739   1.405       .  A
C739        C740   1.414       .  A
C739        H743   1.083       .  S
C740        N744   1.437       .  S
N742        H745   1.046       .  S
N742        H746   1.046       .  S
N744        H747   1.046       .  S
N744        H748   1.046       .  S
C753        C754   1.408       .  A
C753        C758   1.402       .  A
C754        C755   1.396       .  A
C754        N759   1.439       .  S
C755        C756   1.402       .  A
C755        H760   1.084       .  S
C756        C761   1.477       .  S
C756        C757   1.410       .  A
C757        C758   1.407       .  A
C757        N762   1.437       .  S
C758        H763   1.084       .  S
N759        H779   1.046       .  S
N759        H780   1.046       .  S
C761        C764   1.402       .  A
C761        C768   1.405       .  A
N762        H777   1.046       .  S
N762        H778   1.046       .  S
C764        C765   1.408       .  A
C764        H769   1.084       .  S
C765        C766   1.419       .  A
C765        N770   1.438       .  S
C766        C767   1.408       .  A
C767        C768   1.396       .  A
C767        H771   1.083       .  S
C768        N772   1.439       .  S
N770        H773   1.046       .  S
N770        H774   1.045       .  S
N772        H775   1.046       .  S
N772        H776   1.045       .  S
C781        C782   1.418       .  A
C781        C786   1.409       .  A
C782        C783   1.408       .  A
C782        N787   1.437       .  S
C783        C784   1.400       .  A
C783        H788   1.084       .  S
C784        C789   1.474       .  S
C784        C785   1.404       .  A
C785        C786   1.400       .  A
C785        N790   1.439       .  S
C786        H791   1.083       .  S
N787        H807   1.045       .  S
N787        H808   1.046       .  S
C789        C792   1.399       .  A
C789        C796   1.406       .  A
N790        H805   1.046       .  S
N790        H806   1.046       .  S
C792        C793   1.403       .  A
C792        H797   1.084       .  S
C793        C794   1.414       .  A
C793        N798   1.432       .  S
C794        C795   1.409       .  A
C795        C796   1.404       .  A
C795        H799   1.083       .  S
C796        N800   1.438       .  S
N798        H801   1.046       .  S
N798        H802   1.046       .  S
N800        H803   1.046       .  S
N800        H804   1.046       .  S
C809        C810   1.415       .  A
C809        C814   1.407       .  A
C810        C811   1.408       .  A
C810        N815   1.437       .  S
C811        C812   1.401       .  A
C811        H816   1.084       .  S
C812        C817   1.475       .  S
C812        C813   1.405       .  A
C813        C814   1.400       .  A
C813        N818   1.438       .  S
C814        H819   1.083       .  S
N815        H835   1.046       .  S
N815        H836   1.046       .  S
C817        C820   1.398       .  A
C817        C824   1.405       .  A
N818        H833   1.046       .  S
N818        H834   1.045       .  S
C820        C821   1.405       .  A
C820        H825   1.084       .  S
C821        C822   1.421       .  A
C821        N826   1.438       .  S
C822        C823   1.410       .  A
C823        C824   1.405       .  A
C823        H827   1.083       .  S
C824        N828   1.438       .  S
N826        H829   1.046       .  S
N826        H830   1.045       .  S
N828        H831   1.046       .  S
N828        H832   1.045       .  S
C837        C838   1.418       .  A
C837        C842   1.404       .  A
C838        C839   1.407       .  A
C838        N843   1.438       .  S
C839        C840   1.401       .  A
C839        H844   1.084       .  S
C840        C845   1.477       .  S
C840        C841   1.409       .  A
C841        C842   1.399       .  A
C841        N846   1.439       .  S
C842        H847   1.083       .  S
N843        H863   1.045   1_556  S
N843        H864   1.046       .  S
C845        C848   1.399       .  A
C845        C852   1.410       .  A
N846        H861   1.046       .  S
N846        H862   1.046       .  S
C848        C849   1.399       .  A
C848        H853   1.084       .  S
C849        C850   1.416       .  A
C849        N854   1.433       .  S
C850        C851   1.405       .  A
C851        C852   1.404       .  A
C851        H855   1.083       .  S
C852        N856   1.438       .  S
N854        H857   1.045       .  S
N854        H858   1.046       .  S
N856        H859   1.046       .  S
N856        H860   1.046       .  S
C865        C866   1.418       .  A
C865        C870   1.408       .  A
C866        C867   1.408       .  A
C866        N871   1.438       .  S
C867        C868   1.402       .  A
C867        H872   1.084       .  S
C868        C873   1.489       .  S
C868        C869   1.410       .  A
C869        C870   1.406       .  A
C869        N874   1.438       .  S
C870        H875   1.083       .  S
N871        H891   1.046       .  S
N871        H892   1.046       .  S
C873        C876   1.399       .  A
C873        C880   1.412       .  A
N874        H889   1.046       .  S
N874        H890   1.046       .  S
C876        C877   1.398       .  A
C876        H881   1.084       .  S
C877        C878   1.417       .  A
C877        N882   1.433       .  S
C878        C879   1.409       .  A
C879        C880   1.414       .  A
C879        H883   1.083       .  S
C880        N884   1.437       .  S
N882        H885   1.046       .  S
N882        H886   1.046       .  S
N884        H887   1.046       .  S
N884        H888   1.046       .  S
C893        C894   1.414       .  A
C893        C898   1.408       .  A
C894        C895   1.402       .  A
C894        N899   1.437       .  S
C895        C896   1.399       .  A
C895        H900   1.084       .  S
C896        C901   1.476       .  S
C896        C897   1.407       .  A
C897        C898   1.409       .  A
C897        N902   1.437       .  S
C898        H903   1.084       .  S
N899        H919   1.046       .  S
N899        H920   1.046       .  S
C901        C904   1.399       .  A
C901        C908   1.407       .  A
N902        H917   1.046       .  S
N902        H918   1.045       .  S
C904        C905   1.405       .  A
C904        H909   1.084       .  S
C905        C906   1.417       .  A
C905        N910   1.432       .  S
C906        C907   1.408       .  A
C907        C908   1.403       .  A
C907        H911   1.083       .  S
C908        N912   1.438       .  S
N910        H913   1.046       .  S
N910        H914   1.046       .  S
N912        H915   1.046       .  S
N912        H916   1.045       .  S
