geometry optimzed in LAMMPS
_audit_creation_date              2020-12-01 
_audit_creation_method            'lammps2cif' 
_symmetry_space_group_name_H-M    'P1' 
_symmetry_Int_Tables_number       1 
_symmetry_cell_setting            triclinic 
loop_ 
_symmetry_equiv_pos_as_xyz 
  x,y,z 
_cell_length_a                    28.41171066 
_cell_length_b                    27.560071643554846 
_cell_length_c                    37.16371106154536 
_cell_angle_alpha                 90.01564028217794 
_cell_angle_beta                  90.00796738822703 
_cell_angle_gamma                 120.06167694844092 
loop_ 
_atom_site_label 
_atom_site_type_symbol 
_atom_site_fract_x 
_atom_site_fract_y 
_atom_site_fract_z 
_atom_site_charge 
C1          C  0.15094629  0.32830921  0.58588902     0.48600
H2          H  0.15475149  0.32913685  0.55611136    -0.00400
C3          C  0.14230373  0.32663259  0.65569784     0.48600
H4          H  0.13865080  0.32574245  0.68553334    -0.00400
C5          C  0.12273990  0.26850985  0.60197404    -0.14100
C6          C  0.20614731  0.36165288  0.60574508    -0.13900
C7          C  0.11685261  0.35397899  0.59975968    -0.14300
C8          C  0.11925749  0.26855650  0.63881307    -0.14200
C9          C  0.20065093  0.35965130  0.64234968    -0.13800
C10         C  0.11267789  0.35310457  0.63673738    -0.14100
C11         C  0.14040941  0.32564334  0.87489784     0.48600
H12         H  0.13659014  0.32471093  0.84506775    -0.00400
C13         C  0.14944286  0.32770977  0.94473213     0.48600
H14         H  0.15349408  0.32867568  0.97450097    -0.00400
C15         C  0.11161487  0.35273324  0.89396748    -0.14100
C16         C  0.11662425  0.26771279  0.89184212    -0.13900
C17         C  0.19877445  0.35809226  0.88814978    -0.14300
C18         C  0.11609880  0.35411549  0.93088881    -0.14200
C19         C  0.12047713  0.26795621  0.92865835    -0.13800
C20         C  0.20440571  0.36014720  0.92469382    -0.14100
C21         C  0.96961258  0.48712140  0.73155987     0.48600
H22         H  0.96776001  0.48654213  0.70165535    -0.00400
C23         C  0.97371949  0.48868079  0.80164733     0.48600
H24         H  0.97548625  0.48930017  0.83155614    -0.00400
C25         C  0.00122325  0.04436966  0.74642799    -0.14100
C26         C  0.41964437  0.45894184  0.74831701    -0.13900
C27         C  0.99710298  0.45604445  0.74717255    -0.14300
C28         C  0.00143292  0.04474091  0.78322454    -0.14200
C29         C  0.42014140  0.45965420  0.78503569    -0.13800
C30         C  0.99903152  0.45681421  0.78401397    -0.14100
C31         C  0.32261186  0.13577542  0.37411197     0.48600
H32         H  0.32689680  0.13668057  0.34431952    -0.00400
C33         C  0.31250785  0.13399041  0.44382722     0.48600
H34         H  0.30804418  0.13317618  0.47355697    -0.00400
C35         C  0.35217069  0.10971691  0.39363329    -0.14100
C36         C  0.34502161  0.19378797  0.39087977    -0.13900
C37         C  0.26401215  0.10248176  0.38692461    -0.14300
C38         C  0.34720214  0.10865066  0.43058428    -0.14200
C39         C  0.34076129  0.19373008  0.42767686    -0.13800
C40         C  0.25776747  0.10052422  0.42346001    -0.14100
C41         C  0.31375052  0.13406781  0.08398810     0.48600
H42         H  0.31022453  0.13349897  0.05419155    -0.00400
C43         C  0.32155735  0.13504337  0.15387148     0.48600
H44         H  0.32487879  0.13553545  0.18372285    -0.00400
C45         C  0.34100818  0.19353707  0.10049756    -0.14100
C46         C  0.25861076  0.09993597  0.10356366    -0.13900
C47         C  0.34808695  0.10888886  0.09790599    -0.14300
C48         C  0.34404803  0.19315038  0.13735008    -0.14200
C49         C  0.26357233  0.10143170  0.14012761    -0.13800
C50         C  0.35201715  0.10971612  0.13480529    -0.14100
C51         C  0.49216234  0.47509622  0.22855775     0.48600
H52         H  0.49217678  0.47466508  0.19862576    -0.00400
C53         C  0.49257251  0.47602533  0.29873072     0.48600
H54         H  0.49287278  0.47639283  0.32865972    -0.00400
C55         C  0.45962103  0.41685008  0.24555212    -0.14100
C56         C  0.04750753  0.50240376  0.24564431    -0.13900
C57         C  0.46837855  0.50916838  0.24496402    -0.14300
C58         C  0.45989762  0.41730417  0.28235757    -0.14200
C59         C  0.04683140  0.50169032  0.28231793    -0.13800
C60         C  0.46858965  0.50965913  0.28182697    -0.14100
O61         O  0.45785772  0.35568240  0.05821531    -0.77800
O62         O  0.06578452  0.07963858  0.96756086    -0.62500
O63         O  0.49916391  0.47154696  0.04484057    -1.09100
C64         C  0.33661428  0.42133798  0.98021463     1.09100
O65         O  0.00420396  0.10622454  0.97170267    -0.75700
O66         O  0.42449134  0.05873226  0.01981392    -0.63200
Ni67       Ni  0.02477813  0.42590064  0.05538513     1.34900
C68         C  0.40764869  0.02875153  0.04788957     0.87900
O69         O  0.10530269  0.05982227  0.02733532    -0.76200
O70         O  0.09694097  0.48836328  0.06515125    -0.86500
C71         C  0.05111742  0.11548002  0.96223005     0.87400
O72         O  0.04874713  0.41345634  0.01029776    -0.64700
O73         O  0.36287351  0.47075665  0.96684668    -0.84000
C74         C  0.05919431  0.43775811  0.97993593     0.88300
C75         C  0.12618886  0.03971939  0.04878335     1.09800
H76         H  0.46212772  0.46699975  0.96530544     0.41600
O77         O  0.46303840  0.48829911  0.98620010    -1.06600
O78         O  0.41050662  0.48387230  0.05324926    -0.63300
Ni79       Ni  0.42785038  0.43629268  0.02452061     1.26300
O80         O  0.05478190  0.48069629  0.97366052    -0.63500
O81         O  0.35718806  0.40219604  0.00264596    -0.75800
C82         C  0.41109183  0.34681077  0.06779313     0.87600
O83         O  0.39688572  0.38309530  0.06262216    -0.63000
Ni84       Ni  0.45702826  0.05455751  0.97619813     1.27400
Ni85       Ni  0.03492037  0.02588262  0.00527589     1.26100
H86         H  0.50001175  0.49303164  0.06561693     0.42200
O87         O  0.00537503  0.10668851  0.55735808    -0.77800
O88         O  0.39695189  0.38380181  0.46532626    -0.62500
O89         O  0.46231901  0.48962725  0.54152062    -1.09100
C90         C  0.12652741  0.03844956  0.48074573     1.09100
O91         O  0.45652093  0.35495873  0.47243439    -0.75700
O92         O  0.04836670  0.40995179  0.51883540    -0.63200
Ni93       Ni  0.43724069  0.03785334  0.55755302     1.34900
C94         C  0.05907360  0.43546492  0.54878756     0.87900
O95         O  0.35600769  0.40508855  0.52424470    -0.76200
O96         O  0.36280973  0.47391083  0.56038450    -0.86500
C97         C  0.41060163  0.34681829  0.46130288     0.87400
O98         O  0.41719631  0.05314234  0.51173797    -0.64700
O99         O  0.10413274  0.48995048  0.46766111    -0.84000
C100        C  0.40745819  0.02892439  0.48134771     0.88300
C101        C  0.33597284  0.42453467  0.54695768     1.09800
H102        H  0.50129121  0.49276484  0.46295041     0.41600
O103        O  0.49936358  0.47122871  0.48397618    -1.06600
O104        O  0.05567517  0.47927825  0.55393083    -0.63300
Ni105      Ni  0.03522513  0.02469067  0.52495312     1.26300
O106        O  0.41214624  0.48577527  0.47345578    -0.63500
O107        O  0.10640227  0.05760438  0.50360567    -0.75800
C108        C  0.05173429  0.11513731  0.56773827     0.87600
O109        O  0.06583476  0.07863731  0.56283979    -0.63000
Ni110      Ni  0.03157684  0.42573869  0.47220448     1.27400
Ni111      Ni  0.42739175  0.43752417  0.50324472     1.26100
H112        H  0.46035063  0.46823272  0.56262918     0.42200
C113        C  0.18334934  0.07710734  0.06030587    -0.13300
C114        C  0.20585693  0.06136142  0.08612423    -0.28500
H115        H  0.20585991  0.11925750  0.04933364     0.15700
H116        H  0.18192323  0.02026956  0.09837913     0.16300
C117        C  0.37243960  0.29323910  0.08536774    -0.13300
C118        C  0.37202299  0.24510489  0.07836658    -0.28500
H119        H  0.34422403  0.29355961  0.10495720     0.15700
H120        H  0.39666150  0.24360411  0.05652334     0.16300
C121        C  0.37552188  0.09021628  0.07196850    -0.13300
C122        C  0.38463737  0.04716330  0.07711669    -0.28500
H123        H  0.38480260  0.11096970  0.04596776     0.15700
H124        H  0.37201129  0.02305085  0.10184160     0.16300
C125        C  0.43375825  0.36692419  0.22385797    -0.15400
C126        C  0.41371612  0.32718463  0.20396869     0.08700
C127        C  0.39079078  0.28170576  0.17989520     0.10500
C128        C  0.37040239  0.24234037  0.15971724    -0.16200
C129        C  0.38287218  0.09133620  0.15559562    -0.15400
C130        C  0.40502147  0.07622330  0.17666508     0.08700
C131        C  0.42773108  0.05721178  0.20287511     0.10500
C132        C  0.44608522  0.03825658  0.22418491    -0.16200
C133        C  0.21793274  0.07514262  0.16420081    -0.15400
C134        C  0.17850613  0.05553343  0.18321064     0.08700
C135        C  0.13158846  0.03496115  0.20450223     0.10500
C136        C  0.09141030  0.01868349  0.22251698    -0.16200
C137        C  0.20375473  0.06288469  0.44009084    -0.13300
C138        C  0.18374708  0.07584135  0.46895026    -0.28500
H139        H  0.17736796  0.02436439  0.42560997     0.15700
H140        H  0.20835340  0.11567974  0.48254681     0.16300
C141        C  0.37234419  0.29346336  0.44321269    -0.13300
C142        C  0.37127848  0.24499765  0.45025798    -0.28500
H143        H  0.34499217  0.29428178  0.42311082     0.15700
H144        H  0.39500396  0.24296343  0.47251972     0.16300
C145        C  0.37358937  0.08953800  0.45738338    -0.13300
C146        C  0.38727692  0.04982697  0.45172307    -0.28500
H147        H  0.37828567  0.10689974  0.48425301     0.15700
H148        H  0.37953415  0.02881164  0.42596260     0.16300
C149        C  0.43475304  0.36783805  0.30453292    -0.15400
C150        C  0.41525652  0.32830482  0.32461296     0.08700
C151        C  0.39257986  0.28282096  0.34872390     0.10500
C152        C  0.37201738  0.24329385  0.36878788    -0.16200
C153        C  0.44812601  0.03699619  0.30568446    -0.15400
C154        C  0.42933385  0.05565622  0.32706904     0.08700
C155        C  0.40570292  0.07514585  0.35256975     0.10500
C156        C  0.38313603  0.09086162  0.37304925    -0.16200
C157        C  0.09358799  0.02120826  0.30214371    -0.15400
C158        C  0.13393678  0.03795398  0.32020155     0.08700
C159        C  0.18040868  0.05843592  0.34217697     0.10500
C160        C  0.21913059  0.07739490  0.36195635    -0.16200
C161        C  0.08959802  0.21691022  0.95116654    -0.13300
C162        C  0.08940436  0.16886945  0.94443862    -0.28500
H163        H  0.06505038  0.21868937  0.97297221     0.15700
H164        H  0.11754643  0.16847378  0.92481249     0.16300
C165        C  0.27940504  0.38377260  0.96870145    -0.13300
C166        C  0.25780783  0.39835635  0.94161010    -0.28500
H167        H  0.25606329  0.34259665  0.98093227     0.15700
H168        H  0.28267472  0.43840624  0.92830619     0.16300
C169        C  0.09057326  0.37486838  0.95702742    -0.13300
C170        C  0.07918844  0.41610046  0.95078608    -0.28500
H171        H  0.08446258  0.35723981  0.98390240     0.15700
H172        H  0.08837191  0.43729474  0.92503534     0.16300
C173        C  0.37196301  0.44032878  0.80656055    -0.15400
C174        C  0.33124247  0.42382344  0.82408012     0.08700
C175        C  0.28372010  0.40302064  0.84484526     0.10500
C176        C  0.24409581  0.38351055  0.86371145    -0.15200
C177        C  0.02169132  0.43021825  0.80556534    -0.15400
C178        C  0.03945294  0.41023854  0.82654563     0.08700
C179        C  0.06097216  0.38919516  0.85223204     0.10500
C180        C  0.08198796  0.37244909  0.87305975    -0.16200
C181        C  0.02553009  0.09457902  0.80503927    -0.15400
C182        C  0.04443700  0.13396844  0.82522200     0.08700
C183        C  0.06713144  0.17899694  0.84964584     0.10500
C184        C  0.08840258  0.21823675  0.86987863    -0.16200
C185        C  0.09150695  0.21716469  0.57939572    -0.13300
C186        C  0.09006673  0.16836685  0.58612568    -0.28500
H187        H  0.06779529  0.21953306  0.55724837     0.15700
H188        H  0.11745789  0.16721733  0.60605670     0.16300
C189        C  0.25979170  0.39948937  0.58866350    -0.13300
C190        C  0.27882686  0.38728764  0.55897404    -0.28500
H191        H  0.28682404  0.43749208  0.60341467     0.15700
H192        H  0.25372538  0.34786240  0.54505779     0.16300
C193        C  0.09020308  0.37319708  0.57337502    -0.13300
C194        C  0.07854777  0.41444702  0.57876319    -0.28500
H195        H  0.08400802  0.35470085  0.54675401     0.15700
H196        H  0.08772863  0.43644263  0.60424950     0.16300
C197        C  0.02635622  0.09390212  0.72437139    -0.15400
C198        C  0.04676172  0.13365810  0.70452477     0.08700
C199        C  0.07073399  0.17941891  0.68072209     0.10500
C200        C  0.09204774  0.21908525  0.66084364    -0.16200
C201        C  0.37105699  0.43897026  0.72699889    -0.15400
C202        C  0.33096686  0.42276620  0.70876501     0.08700
C203        C  0.28472771  0.40304718  0.68667014     0.10500
C204        C  0.24597356  0.38455423  0.66695421    -0.16200
C205        C  0.08286811  0.37306083  0.65770413    -0.15400
C206        C  0.06116694  0.38993737  0.67811584     0.08700
C207        C  0.03813307  0.41074039  0.70323423     0.10500
C208        C  0.01939112  0.43006155  0.72421321    -0.16200
C209        C  0.15161641  0.82900369  0.58567890     0.48600
H210        H  0.15616508  0.83023444  0.55594701    -0.00400
C211        C  0.14135573  0.82625897  0.65539190     0.48600
H212        H  0.13698741  0.82497476  0.68518895    -0.00400
C213        C  0.12300306  0.76898385  0.60147473    -0.14100
C214        C  0.20636759  0.86194800  0.60614603    -0.13900
C215        C  0.11713809  0.85447019  0.59920948    -0.14300
C216        C  0.11865880  0.76845247  0.63828298    -0.14200
C217        C  0.20000425  0.85950482  0.64267805    -0.13800
C218        C  0.11210087  0.85281836  0.63613156    -0.14100
C219        C  0.14895337  0.83303890  0.87670091     0.48600
H220        H  0.14919929  0.83474111  0.84678310    -0.00400
C221        C  0.14831931  0.82837960  0.94659373     0.48600
H222        H  0.14788011  0.82585270  0.97646426    -0.00400
C223        C  0.11903944  0.86008354  0.89448474    -0.14100
C224        C  0.12137505  0.77329271  0.89155397    -0.13900
C225        C  0.20557387  0.86189798  0.89364573    -0.14300
C226        C  0.11844818  0.85770433  0.93148056    -0.14200
C227        C  0.12099305  0.77097551  0.92834855    -0.13800
C228        C  0.20582323  0.85935797  0.93061551    -0.14100
C229        C  0.97021317  0.98553342  0.72997163     0.48600
H230        H  0.96979463  0.98529697  0.70004119    -0.00400
C231        C  0.97102367  0.98632947  0.80013396     0.48600
H232        H  0.97126617  0.98677246  0.83006534    -0.00400
C233        C  0.00107071  0.54615702  0.74764330    -0.14100
C234        C  0.41944708  0.96326328  0.74848038    -0.13900
C235        C  0.99638069  0.95385424  0.74661083    -0.14300
C236        C  0.00320433  0.54710272  0.78443007    -0.14200
C237        C  0.42130989  0.96312130  0.78518293    -0.13800
C238        C  0.99705220  0.95446993  0.78347952    -0.14100
C239        C  0.32496001  0.63893906  0.37314064     0.48600
H240        H  0.32847631  0.64003480  0.34328885    -0.00400
C241        C  0.31655937  0.63652448  0.44298859     0.48600
H242        H  0.31283235  0.63541368  0.47277663    -0.00400
C243        C  0.35615334  0.61413866  0.39192765    -0.14100
C244        C  0.34637075  0.69663566  0.39010535    -0.13900
C245        C  0.26690221  0.60428080  0.38664478    -0.14300
C246        C  0.35196667  0.61258435  0.42886360    -0.14200
C247        C  0.34306542  0.69626001  0.42696909    -0.13800
C248        C  0.26151551  0.60202655  0.42322866    -0.14100
C249        C  0.31171966  0.63115657  0.08433772     0.48600
H250        H  0.30524372  0.62743135  0.05474717    -0.00400
C251        C  0.32670086  0.63971168  0.15367566     0.48600
H252        H  0.33292170  0.64334796  0.18333354    -0.00400
C253        C  0.33726800  0.69188800  0.09836018    -0.14100
C254        C  0.25899179  0.59693421  0.10638985    -0.13900
C255        C  0.35001387  0.61031392  0.09766781    -0.14300
C256        C  0.34461748  0.69580276  0.13499999    -0.14200
C257        C  0.26769372  0.60225552  0.14264129    -0.13800
C258        C  0.35744344  0.61478238  0.13438591    -0.14100
C259        C  0.49210302  0.97801964  0.22764857     0.48600
H260        H  0.49090792  0.97832515  0.19773133    -0.00400
C261        C  0.49511613  0.97746794  0.29773462     0.48600
H262        H  0.49647638  0.97712116  0.32764191    -0.00400
C263        C  0.46044102  0.91928338  0.24407893    -0.14100
C264        C  0.04368254  0.99976787  0.24435669    -0.13900
C265        C  0.46848381  0.01122777  0.24557809    -0.14300
C266        C  0.46196040  0.91904757  0.28090205    -0.14200
C267        C  0.04471465  0.00101658  0.28106962    -0.13800
C268        C  0.46991579  0.01096059  0.28242529    -0.14100
O269        O  0.43751366  0.84423187  0.04294403    -0.77800
O270        O  0.07757937  0.58576027  0.96764790    -0.62500
O271        O  0.49078857  0.95994197  0.04569595    -1.09100
C272        C  0.35259454  0.94959735  0.96673092     1.09100
O273        O  0.02378300  0.61808729  0.98225026    -0.75700
O274        O  0.41798728  0.55233485  0.01726407    -0.63200
Ni275      Ni  0.02766959  0.92543020  0.05703934     1.34900
C276        C  0.40729615  0.52765672  0.04748505     0.87900
O277        O  0.11015848  0.55674168  0.02654710    -0.76200
O278        O  0.10024920  0.98962108  0.06119977    -0.86500
C279        C  0.06581282  0.62428830  0.96622020     0.87400
O280        O  0.04389440  0.90924111  0.01041227    -0.64700
O281        O  0.38784122  0.99966329  0.95807516    -0.84000
C282        C  0.05619553  0.93581532  0.98085267     0.88300
C283        C  0.12683298  0.53662184  0.05088071     1.09800
H284        H  0.47396363  0.98059824  0.96606509     0.41600
O285        O  0.47265441  0.99755364  0.98850872    -1.06600
O286        O  0.40862648  0.98338860  0.05164327    -0.63300
Ni287      Ni  0.42457343  0.93831247  0.01943093     1.26300
O288        O  0.05345843  0.97997611  0.97595009    -0.63500
O289        O  0.36017774  0.92066459  0.99088709    -0.75800
C290        C  0.39329990  0.83793857  0.05563207     0.87600
O291        O  0.38118268  0.87619405  0.05115752    -0.63000
Ni292      Ni  0.43510744  0.53525316  0.97115013     1.27400
Ni293      Ni  0.04131277  0.52971234  0.00359827     1.26100
H294        H  0.48944707  0.97688067  0.06815196     0.42200
O295        O  0.00811117  0.60750473  0.55568630    -0.77800
O296        O  0.39808309  0.88516683  0.46620881    -0.62500
O297        O  0.46468458  0.99064376  0.54234087    -1.09100
C298        C  0.13052590  0.53969433  0.48063426     1.09100
O299        O  0.45852446  0.85710865  0.47143125    -0.75700
O300        O  0.04643313  0.90943224  0.51868294    -0.63200
Ni301      Ni  0.43541195  0.53774836  0.55565864     1.34900
C302        C  0.05637035  0.93417796  0.54888008     0.87900
O303        O  0.35831003  0.90539177  0.52612701    -0.76200
O304        O  0.36538387  0.97310948  0.56348061    -0.86500
C305        C  0.41217434  0.84874279  0.46116046     0.87400
O306        O  0.41864116  0.55406288  0.50922216    -0.64700
O307        O  0.09984356  0.98915033  0.46716506    -0.84000
C308        C  0.40878599  0.52956024  0.47896017     0.88300
C309        C  0.33848760  0.92405859  0.54956433     1.09800
H310        H  0.50180836  0.99441889  0.46314775     0.41600
O311        O  0.50069836  0.97299652  0.48402988    -1.06600
O312        O  0.05156657  0.97709042  0.55452714    -0.63300
Ni313      Ni  0.03885749  0.52624701  0.52414625     1.26300
O314        O  0.41261339  0.98636660  0.47530846    -0.63500
O315        O  0.11002287  0.55940910  0.50279492    -0.75800
C316        C  0.05437140  0.61641972  0.56660463     0.87600
O317        O  0.06906434  0.58034864  0.56193908    -0.63000
Ni318      Ni  0.02778620  0.92459821  0.47244984     1.27400
Ni319      Ni  0.42920242  0.93853557  0.50424056     1.26100
H320        H  0.46355720  0.96927166  0.56325622     0.42200
C321        C  0.18403296  0.57211144  0.06276027    -0.13300
C322        C  0.20406135  0.55882449  0.09127962    -0.28500
H323        H  0.20941168  0.61146962  0.04883195     0.15700
H324        H  0.17755943  0.52097238  0.10631255     0.16300
C325        C  0.35749341  0.78644104  0.07644898    -0.13300
C326        C  0.36254976  0.74051233  0.07340758    -0.28500
H327        H  0.32949311  0.78736181  0.09595761     0.15700
H328        H  0.38769428  0.73848414  0.05210770     0.16300
C329        C  0.37595808  0.59038864  0.07117780    -0.13300
C330        C  0.38831196  0.54975185  0.07711929    -0.28500
H331        H  0.38065757  0.60735161  0.04419663     0.15700
H332        H  0.38016315  0.52904037  0.10302367     0.16300
C333        C  0.43346284  0.86988776  0.22170579    -0.15400
C334        C  0.41311223  0.83124830  0.20080961     0.08700
C335        C  0.39034735  0.78685804  0.17565681     0.10500
C336        C  0.37036794  0.74732476  0.15543268    -0.16200
C337        C  0.38901805  0.59687577  0.15500062    -0.15400
C338        C  0.41039233  0.58011065  0.17563628     0.08700
C339        C  0.43142650  0.55821647  0.20126458     0.10500
C340        C  0.44807172  0.53730501  0.22249040    -0.16200
C341        C  0.22443794  0.57802135  0.16852452    -0.15400
C342        C  0.18531789  0.55931286  0.18773387     0.08700
C343        C  0.13754394  0.53900239  0.20800789     0.10500
C344        C  0.09627522  0.52234370  0.22482840    -0.16200
C345        C  0.20815626  0.56363907  0.44039537    -0.13300
C346        C  0.18774382  0.57707168  0.46881801    -0.28500
H347        H  0.18227522  0.52447431  0.42639137     0.15700
H348        H  0.21184718  0.61756136  0.48177910     0.16300
C349        C  0.37386056  0.79558856  0.44299043    -0.13300
C350        C  0.37347862  0.74738530  0.44958792    -0.28500
H351        H  0.34599660  0.79632807  0.42327478     0.15700
H352        H  0.39776413  0.74549037  0.47153053     0.16300
C353        C  0.37906272  0.59333687  0.45487467    -0.13300
C354        C  0.39019892  0.55174903  0.44912341    -0.28500
H355        H  0.38534340  0.61148882  0.48160547     0.15700
H356        H  0.38088958  0.53016657  0.42347458     0.16300
C357        C  0.43588876  0.86945393  0.30286044    -0.15400
C358        C  0.41551774  0.83032743  0.32321960     0.08700
C359        C  0.39236880  0.78545803  0.34775359     0.10500
C360        C  0.37215268  0.74622723  0.36804547    -0.16200
C361        C  0.44819929  0.53809907  0.30386082    -0.15400
C362        C  0.43097659  0.55883662  0.32475130     0.08700
C363        C  0.40897404  0.57996334  0.35015442     0.10500
C364        C  0.38710267  0.59602888  0.37085392    -0.16200
C365        C  0.09485270  0.52144722  0.30400920    -0.15400
C366        C  0.13531366  0.53835439  0.32182474     0.08700
C367        C  0.18231452  0.55917653  0.34307833     0.10500
C368        C  0.22156521  0.57854274  0.36226608    -0.16200
C369        C  0.09177772  0.71965585  0.94972713    -0.13300
C370        C  0.09987012  0.67604360  0.94605775    -0.28500
H371        H  0.06407355  0.71912269  0.97008213     0.15700
H372        H  0.13038675  0.67804950  0.92753804     0.16300
C373        C  0.30133781  0.92646979  0.94617658    -0.13300
C374        C  0.25524527  0.87878365  0.95356289    -0.28500
H375        H  0.30123154  0.95239045  0.92420793     0.15700
H376        H  0.25264372  0.85489006  0.97745268     0.16300
C377        C  0.08861576  0.87464125  0.95671027    -0.13300
C378        C  0.07742461  0.91612780  0.95123932    -0.28500
H379        H  0.07967098  0.85428626  0.98283664     0.15700
H380        H  0.08897602  0.93976222  0.92634703     0.16300
C381        C  0.37427184  0.94107442  0.80795468    -0.15400
C382        C  0.33595606  0.92290393  0.82788174     0.08700
C383        C  0.29147064  0.90177020  0.85142574     0.10500
C384        C  0.25299024  0.88374020  0.87121301    -0.15200
C385        C  0.02169700  0.93028787  0.80566734    -0.15400
C386        C  0.04255342  0.91317471  0.82648848     0.08700
C387        C  0.06766391  0.89514720  0.85175046     0.10500
C388        C  0.09020904  0.87992216  0.87255193    -0.16200
C389        C  0.02981171  0.59762390  0.80580190    -0.15400
C390        C  0.05099809  0.63836191  0.82497515     0.08700
C391        C  0.07521507  0.68508460  0.84827223     0.10500
C392        C  0.09593436  0.72486230  0.86825728    -0.16200
C393        C  0.09261277  0.71797720  0.57860372    -0.13300
C394        C  0.09179203  0.66953267  0.58530831    -0.28500
H395        H  0.06914993  0.72028187  0.55626871     0.15700
H396        H  0.11899868  0.66859427  0.60547742     0.16300
C397        C  0.26043457  0.89988155  0.58962543    -0.13300
C398        C  0.28130723  0.88640025  0.56146449    -0.28500
H399        H  0.28613258  0.93899370  0.60372878     0.15700
H400        H  0.25720361  0.84608196  0.54830062     0.16300
C401        C  0.09081048  0.87404912  0.57266980    -0.13300
C402        C  0.07652567  0.91332045  0.57858492    -0.28500
H403        H  0.08649770  0.85719167  0.54568360     0.15700
H404        H  0.08384731  0.93398729  0.60444640     0.16300
C405        C  0.02577076  0.59526976  0.72513496    -0.15400
C406        C  0.04583935  0.63436599  0.70471804     0.08700
C407        C  0.06956318  0.67938574  0.68028397     0.10500
C408        C  0.09094763  0.71873810  0.66012579    -0.16200
C409        C  0.36996789  0.94198345  0.72796476    -0.15400
C410        C  0.32947547  0.92444141  0.70996798     0.08700
C411        C  0.28319872  0.90345808  0.68776580     0.10500
C412        C  0.24474678  0.88443256  0.66775270    -0.16200
C413        C  0.08137819  0.87160463  0.65689905    -0.15400
C414        C  0.05936852  0.88760693  0.67756020     0.08700
C415        C  0.03679377  0.90793556  0.70314111     0.10500
C416        C  0.01864248  0.92744453  0.72429364    -0.16200
C417        C  0.65123103  0.32787940  0.58298223     0.48600
H418        H  0.65597852  0.32917716  0.55326330    -0.00400
C419        C  0.64066767  0.32492691  0.65264992     0.48600
H420        H  0.63624322  0.32361973  0.68244865    -0.00400
C421        C  0.62268318  0.26781621  0.59878840    -0.14100
C422        C  0.70588622  0.36086223  0.60360531    -0.13900
C423        C  0.61655838  0.35322386  0.59641797    -0.14300
C424        C  0.61819357  0.26723224  0.63559129    -0.14200
C425        C  0.69925329  0.35812696  0.64008710    -0.13800
C426        C  0.61157265  0.35158421  0.63336223    -0.14100
C427        C  0.64391290  0.32185723  0.88209823     0.48600
H428        H  0.64293840  0.32163329  0.85216485    -0.00400
C429        C  0.64614799  0.32145180  0.95200903     0.48600
H430        H  0.64715692  0.32103073  0.98191107    -0.00400
C431        C  0.61428706  0.34972471  0.89930030    -0.14100
C432        C  0.61770918  0.26309093  0.89860918    -0.13900
C433        C  0.70130067  0.35232279  0.89780906    -0.14300
C434        C  0.61527562  0.34967068  0.93638234    -0.14200
C435        C  0.61874788  0.26271349  0.93544478    -0.13800
C436        C  0.70296981  0.35189787  0.93482369    -0.14100
C437        C  0.47617761  0.48478382  0.73135788     0.48600
H438        H  0.47558832  0.48417531  0.70142854    -0.00400
C439        C  0.47718238  0.48615776  0.80148791     0.48600
H440        H  0.47740282  0.48694736  0.83141418    -0.00400
C441        C  0.50792520  0.04768601  0.74726637    -0.14100
C442        C  0.91374114  0.46031030  0.74980552    -0.13900
C443        C  0.50214156  0.45295487  0.74825160    -0.14300
C444        C  0.50963432  0.04750767  0.78406862    -0.14200
C445        C  0.91584750  0.46083854  0.78655969    -0.13800
C446        C  0.50277100  0.45358053  0.78518034    -0.14100
C447        C  0.82711115  0.13960517  0.37484150     0.48600
H448        H  0.83201426  0.14096965  0.34507861    -0.00400
C449        C  0.81556649  0.13642082  0.44444298     0.48600
H450        H  0.81036590  0.13498551  0.47412459    -0.00400
C451        C  0.85646844  0.11359359  0.39455333    -0.14100
C452        C  0.84869782  0.19720368  0.39187519    -0.13900
C453        C  0.76839878  0.10567416  0.38702610    -0.14300
C454        C  0.85069564  0.11150388  0.43139744    -0.14200
C455        C  0.84398972  0.19654474  0.42868282    -0.13800
C456        C  0.76129999  0.10294686  0.42346491    -0.14100
C457        C  0.81867463  0.14172503  0.07881164     0.48600
H458        H  0.81719025  0.14218266  0.04893406    -0.00400
C459        C  0.82215202  0.14107577  0.14868754     0.48600
H460        H  0.82363207  0.14114028  0.17861157    -0.00400
C461        C  0.84640547  0.20079513  0.09550816    -0.14100
C462        C  0.76191611  0.10983717  0.09648747    -0.13900
C463        C  0.85015843  0.11379432  0.09394087    -0.14300
C464        C  0.84775823  0.19991925  0.13235047    -0.14200
C465        C  0.76458211  0.10987137  0.13340554    -0.13800
C466        C  0.85178708  0.11366704  0.13100452    -0.14100
C467        C  0.99126668  0.47800436  0.22843053     0.48600
H468        H  0.99204800  0.47863945  0.19850224    -0.00400
C469        C  0.98996114  0.47649255  0.29857913     0.48600
H470        H  0.98960608  0.47584918  0.32850913    -0.00400
C471        C  0.95850638  0.41911383  0.24453868    -0.14100
C472        C  0.54880796  0.49985449  0.24522621    -0.13900
C473        C  0.96685719  0.51128674  0.24517212    -0.14300
C474        C  0.95792206  0.41831891  0.28136919    -0.14200
C475        C  0.54906815  0.50033287  0.28192903    -0.13800
C476        C  0.96611669  0.51041863  0.28203222    -0.14100
O477        O  0.95489158  0.35935336  0.04743356    -0.77800
O478        O  0.58180703  0.08134185  0.98275156    -0.62500
O479        O  0.00018293  0.47502937  0.03941340    -1.09100
C480        C  0.85022433  0.44900474  0.96703417     1.09100
O481        O  0.52560220  0.11188488  0.99385418    -0.75700
O482        O  0.91655721  0.05282697  0.01507677    -0.63200
Ni483      Ni  0.52748182  0.42522191  0.06044417     1.34900
C484        C  0.90712351  0.02928326  0.04563776     0.87900
O485        O  0.60342508  0.03838165  0.04230132    -0.76200
O486        O  0.59954658  0.49017399  0.06491890    -0.86500
C487        C  0.56893842  0.11907697  0.97934678     0.87400
O488        O  0.54550310  0.40834451  0.01458984    -0.64700
O489        O  0.88205519  0.49971531  0.95769769    -0.84000
C490        C  0.55595850  0.43251185  0.98419067     0.88300
C491        C  0.61325138  0.01001981  0.06537980     1.09800
H492        H  0.97121377  0.48404170  0.95939162     0.41600
O493        O  0.97209682  0.50248954  0.98169581    -1.06600
O494        O  0.91334568  0.49063430  0.04750991    -0.63300
Ni495      Ni  0.93051158  0.44591659  0.01591326     1.26300
O496        O  0.55180750  0.47565381  0.97795558    -0.63500
O497        O  0.86260328  0.42185874  0.98983752    -0.75800
C498        C  0.90830578  0.35079530  0.05709356     0.87600
O499        O  0.89334772  0.38642091  0.05039295    -0.63000
Ni500      Ni  0.93493253  0.03637070  0.96927342     1.27400
Ni501      Ni  0.53871730  0.01947516  0.01457149     1.26100
H502        H  0.00031433  0.49546001  0.06057647     0.42200
O503        O  0.50717270  0.10686112  0.55386899    -0.77800
O504        O  0.90210757  0.38649064  0.46717990    -0.62500
O505        O  0.96701047  0.49149998  0.54377429    -1.09100
C506        C  0.62731216  0.03984806  0.47765373     1.09100
O507        O  0.96106590  0.35698717  0.47441860    -0.75700
O508        O  0.54552596  0.40807171  0.51560607    -0.63200
Ni509      Ni  0.93516261  0.03740614  0.55905007     1.34900
C510        C  0.55490944  0.43229209  0.54597540     0.87900
O511        O  0.86088187  0.40619845  0.52629104    -0.76200
O512        O  0.86683498  0.47264230  0.56428144    -0.86500
C513        C  0.91546209  0.34935372  0.46302020     0.87400
O514        O  0.91844655  0.05398525  0.51259207    -0.64700
O515        O  0.59927659  0.48822329  0.46436086    -0.84000
C516        C  0.90845418  0.02929621  0.48236389     0.88300
C517        C  0.84035911  0.42404698  0.54970722     1.09800
H518        H  0.00587596  0.49462718  0.46487133     0.41600
O519        O  0.00418087  0.47357602  0.48609601    -1.06600
O520        O  0.54961748  0.47486351  0.55180131    -0.63300
Ni521      Ni  0.53608503  0.02505575  0.52223505     1.26300
O522        O  0.91682033  0.48797418  0.47606457    -0.63500
O523        O  0.60691031  0.05847580  0.50060039    -0.75800
C524        C  0.55322256  0.11514155  0.56475294     0.87600
O525        O  0.56704255  0.07839582  0.56029203    -0.63000
Ni526      Ni  0.52686329  0.42374186  0.46945885     1.27400
Ni527      Ni  0.93232359  0.43954634  0.50540164     1.26100
H528        H  0.96564163  0.46996904  0.56466521     0.42200
C529        C  0.66643447  0.03565643  0.08413685    -0.13300
C530        C  0.71031461  0.08495745  0.07514524    -0.28500
H531        H  0.66979240  0.01157995  0.10609298     0.15700
H532        H  0.70925442  0.10696903  0.05121324     0.16300
C533        C  0.87115206  0.29784185  0.07623560    -0.13300
C534        C  0.87673332  0.25220551  0.07319249    -0.28500
H535        H  0.84013563  0.29677877  0.09384605     0.15700
H536        H  0.90481233  0.25197754  0.05345576     0.16300
C537        C  0.87679544  0.09318458  0.06850959    -0.13300
C538        C  0.88749720  0.05144121  0.07485205    -0.28500
H539        H  0.88403538  0.11126328  0.04172077     0.15700
H540        H  0.87770318  0.03006000  0.10054590     0.16300
C541        C  0.93349438  0.37004308  0.22198072    -0.15400
C542        C  0.91442364  0.33153443  0.20106594     0.08700
C543        C  0.89268936  0.28753702  0.17579581     0.10500
C544        C  0.87323161  0.24898356  0.15491903    -0.16200
C545        C  0.87933972  0.09223851  0.15319710    -0.15400
C546        C  0.89953244  0.07471319  0.17446292     0.08700
C547        C  0.92142705  0.05363833  0.20038029     0.10500
C548        C  0.93980375  0.03428530  0.22169924    -0.16200
C549        C  0.71829565  0.08622523  0.15706879    -0.15400
C550        C  0.68017273  0.06647164  0.17728203     0.08700
C551        C  0.63542282  0.04368893  0.20077030     0.10500
C552        C  0.59672332  0.02487132  0.22046813    -0.16200
C553        C  0.70716759  0.06411061  0.43944077    -0.13300
C554        C  0.68473194  0.07775102  0.46651102    -0.28500
H555        H  0.68265629  0.02447136  0.42558294     0.15700
H556        H  0.70781199  0.11853255  0.47930511     0.16300
C557        C  0.87718976  0.29654628  0.44442124    -0.13300
C558        C  0.87459464  0.24739676  0.45162057    -0.28500
H559        H  0.85079610  0.29832304  0.42396087     0.15700
H560        H  0.89716868  0.24446563  0.47429483     0.16300
C561        C  0.87603095  0.09107755  0.45818540    -0.13300
C562        C  0.88950293  0.05111664  0.45244166    -0.28500
H563        H  0.87998068  0.10768357  0.48521318     0.15700
H564        H  0.88245046  0.03073833  0.42648409     0.16300
C565        C  0.93290872  0.36832634  0.30307039    -0.15400
C566        C  0.91445342  0.32943539  0.32367782     0.08700
C567        C  0.89370325  0.28535918  0.34887976     0.10500
C568        C  0.87472667  0.24675351  0.36972046    -0.16200
C569        C  0.94357031  0.03771418  0.30342962    -0.15400
C570        C  0.92762885  0.05798199  0.32548338     0.08700
C571        C  0.90763273  0.07853795  0.35248641     0.10500
C572        C  0.88697582  0.09465798  0.37400575    -0.16200
C573        C  0.60042725  0.02328614  0.30039312    -0.15400
C574        C  0.64069982  0.04041849  0.31852192     0.08700
C575        C  0.68647359  0.06115899  0.34109294     0.10500
C576        C  0.72434478  0.08027773  0.36154045    -0.16200
C577        C  0.59111523  0.21230122  0.95834569    -0.13300
C578        C  0.60184999  0.16997931  0.95752386    -0.28500
H579        H  0.56220649  0.21165401  0.97774039     0.15700
H580        H  0.63332783  0.17207464  0.93991137     0.16300
C581        C  0.79728617  0.42294767  0.94846781    -0.13300
C582        C  0.75353483  0.37383785  0.95673610    -0.28500
H583        H  0.79383618  0.44750435  0.92681648     0.15700
H584        H  0.75374862  0.35070792  0.98031654     0.16300
C585        C  0.58764284  0.36959202  0.96153091    -0.13300
C586        C  0.57615388  0.41073456  0.95504520    -0.28500
H587        H  0.58032736  0.35154890  0.98833507     0.15700
H588        H  0.58599666  0.43214732  0.92935879     0.16300
C589        C  0.86869188  0.43664428  0.80966456    -0.15400
C590        C  0.83046646  0.41649856  0.82992391     0.08700
C591        C  0.78620463  0.39344862  0.85404323     0.10500
C592        C  0.74815051  0.37448065  0.87444338    -0.15200
C593        C  0.52554244  0.42750708  0.80781065    -0.15400
C594        C  0.54391217  0.40821406  0.82921422     0.08700
C595        C  0.56598260  0.38746965  0.85528254     0.10500
C596        C  0.58648205  0.37049730  0.87673411    -0.16200
C597        C  0.53580154  0.09668523  0.80644429    -0.15400
C598        C  0.55489470  0.13418934  0.82807414     0.08700
C599        C  0.57555057  0.17642144  0.85453269     0.10500
C600        C  0.59365917  0.21397186  0.87613354    -0.16200
C601        C  0.59264391  0.21683659  0.57594156    -0.13300
C602        C  0.59132729  0.16827821  0.58304895    -0.28500
H603        H  0.56938106  0.21910391  0.55346503     0.15700
H604        H  0.61829512  0.16720116  0.60335165     0.16300
C605        C  0.75991992  0.39964465  0.58742021    -0.13300
C606        C  0.78285208  0.38581768  0.56071737    -0.28500
H607        H  0.78408128  0.43958406  0.60101569     0.15700
H608        H  0.76011362  0.34485103  0.54810577     0.16300
C609        C  0.59031579  0.37285760  0.56976176    -0.13300
C610        C  0.57496321  0.41130976  0.57572644    -0.28500
H611        H  0.58684496  0.35666165  0.54265534     0.15700
H612        H  0.58130241  0.43132778  0.60174476     0.16300
C613        C  0.53239839  0.09725049  0.72516858    -0.15400
C614        C  0.55094658  0.13571668  0.70423682     0.08700
C615        C  0.57215534  0.17933848  0.67871726     0.10500
C616        C  0.59165384  0.21772353  0.65773004    -0.16200
C617        C  0.86429636  0.43790120  0.72927825    -0.15400
C618        C  0.82491501  0.42057128  0.71026522     0.08700
C619        C  0.78061339  0.40066880  0.68646748     0.10500
C620        C  0.74353275  0.38259842  0.66542048    -0.16200
C621        C  0.58194581  0.37125745  0.65444822    -0.15400
C622        C  0.56157822  0.38743570  0.67627378     0.08700
C623        C  0.54095936  0.40724491  0.70352422     0.10500
C624        C  0.52389795  0.42629004  0.72578333    -0.16200
C625        C  0.64807232  0.82545581  0.58314562     0.48600
H626        H  0.65298951  0.82659594  0.55344218    -0.00400
C627        C  0.63703069  0.82282916  0.65280197     0.48600
H628        H  0.63246379  0.82178706  0.68257725    -0.00400
C629        C  0.61970571  0.76554883  0.59915289    -0.14100
C630        C  0.70248233  0.85891258  0.60383161    -0.13900
C631        C  0.61328712  0.85069975  0.59621893    -0.14300
C632        C  0.61483306  0.76495290  0.63594926    -0.14200
C633        C  0.69571808  0.85621938  0.64028850    -0.13800
C634        C  0.60795012  0.84926644  0.63312144    -0.14100
C635        C  0.63925989  0.82421731  0.87715954     0.48600
H636        H  0.63577216  0.82369344  0.84731791    -0.00400
C637        C  0.64755841  0.82522937  0.94699468     0.48600
H638        H  0.65136476  0.82586560  0.97677927    -0.00400
C639        C  0.60859223  0.84920541  0.89635743    -0.14100
C640        C  0.61745191  0.76621115  0.89370180    -0.13900
C641        C  0.69723371  0.85829755  0.89069849    -0.14300
C642        C  0.61239141  0.84948855  0.93328256    -0.14200
C643        C  0.62084474  0.76587568  0.93052141    -0.13800
C644        C  0.70243774  0.85998959  0.92721698    -0.14100
C645        C  0.47544839  0.98910700  0.73060663     0.48600
H646        H  0.47396178  0.98920219  0.70069831    -0.00400
C647        C  0.47871005  0.98890105  0.80066799     0.48600
H648        H  0.47991328  0.98878701  0.83059295    -0.00400
C649        C  0.50739149  0.54383931  0.74738879    -0.14100
C650        C  0.91363481  0.95912093  0.74694229    -0.13900
C651        C  0.50130896  0.95632735  0.74609416    -0.14300
C652        C  0.50795914  0.54447670  0.78421851    -0.14200
C653        C  0.91409199  0.95960786  0.78366505    -0.13800
C654        C  0.50292148  0.95622469  0.78293971    -0.14100
C655        C  0.82518585  0.63790424  0.37599892     0.48600
H656        H  0.82949795  0.63934640  0.34619464    -0.00400
C657        C  0.81492927  0.63452368  0.44571607     0.48600
H658        H  0.81025184  0.63300623  0.47544572    -0.00400
C659        C  0.85561879  0.61256717  0.39520868    -0.14100
C660        C  0.84633739  0.69545156  0.39313522    -0.13900
C661        C  0.76676382  0.60317141  0.38871655    -0.14300
C662        C  0.85055662  0.61051667  0.43213188    -0.14200
C663        C  0.84222027  0.69460738  0.42998651    -0.13800
C664        C  0.76040162  0.60032137  0.42519891    -0.14100
C665        C  0.81457313  0.63610021  0.08284946     0.48600
H666        H  0.80969187  0.63492669  0.05313877    -0.00400
C667        C  0.82545557  0.63839000  0.15252281     0.48600
H668        H  0.83002562  0.63947260  0.18230590    -0.00400
C669        C  0.84123239  0.69574655  0.09896070    -0.14100
C670        C  0.76044034  0.60121015  0.10347689    -0.13900
C671        C  0.85091246  0.61276193  0.09596478    -0.14300
C672        C  0.84575869  0.69593688  0.13574685    -0.14200
C673        C  0.76711252  0.60341613  0.13989498    -0.13800
C674        C  0.85630495  0.61410930  0.13281124    -0.14100
C675        C  0.98656458  0.97419305  0.22817457     0.48600
H676        H  0.98594304  0.97292521  0.19825377    -0.00400
C677        C  0.98849878  0.97668500  0.29829849     0.48600
H678        H  0.98942273  0.97780280  0.32822244    -0.00400
C679        C  0.95485725  0.91633101  0.24584637    -0.14100
C680        C  0.54944625  0.00298831  0.24315125    -0.13900
C681        C  0.96238450  0.00809288  0.24433644    -0.14300
C682        C  0.95580180  0.91750610  0.28264722    -0.14200
C683        C  0.55111015  0.00266051  0.27985770    -0.13800
C684        C  0.96366555  0.00943565  0.28121743    -0.14100
O685        O  0.95735768  0.85659577  0.05503503    -0.77800
O686        O  0.56534392  0.57633821  0.96827220    -0.62500
O687        O  0.00006213  0.97313880  0.04321465    -1.09100
C688        C  0.83717610  0.92238197  0.97903558     1.09100
O689        O  0.50497661  0.60441119  0.97319293    -0.75700
O690        O  0.92775577  0.56563032  0.01591432    -0.63200
Ni691      Ni  0.50771821  0.90358662  0.05802896     1.34900
C692        C  0.91226507  0.53594966  0.04415662     0.87900
O693        O  0.60487079  0.55771101  0.02828377    -0.76200
O694        O  0.57900708  0.95948824  0.07412736    -0.86500
C695        C  0.55151603  0.61294681  0.96337543     0.87400
O696        O  0.53662432  0.89768428  0.01314449    -0.64700
O697        O  0.86313737  0.97115742  0.96471976    -0.84000
C698        C  0.55389906  0.92837343  0.98533690     0.88300
C699        C  0.62563893  0.53924168  0.05099824     1.09800
H700        H  0.96296245  0.96894028  0.96408670     0.41600
O701        O  0.96367139  0.99037861  0.98484967    -1.06600
O702        O  0.91196372  0.98658056  0.05199806    -0.63300
Ni703      Ni  0.92875706  0.93851875  0.02328834     1.26300
O704        O  0.55464977  0.97467023  0.98239074    -0.63500
O705        O  0.85805553  0.90434095  0.00191233    -0.75800
C706        C  0.91146813  0.84872421  0.06588795     0.87600
O707        O  0.89809246  0.88576339  0.06155084    -0.63000
Ni708      Ni  0.95317397  0.55742682  0.97032367     1.27400
Ni709      Ni  0.53432125  0.52338990  0.00646222     1.26100
H710        H  0.00120158  0.99392359  0.06444544     0.42200
O711        O  0.50589355  0.60599414  0.55311097    -0.77800
O712        O  0.89822217  0.88426897  0.46844910    -0.62500
O713        O  0.96338385  0.99041387  0.54458386    -1.09100
C714        C  0.62585976  0.53715739  0.47852174     1.09100
O715        O  0.95773623  0.85550163  0.47552155    -0.75700
O716        O  0.54706620  0.90971738  0.51471096    -0.63200
Ni717      Ni  0.93855274  0.53790558  0.55886739     1.34900
C718        C  0.55688985  0.93386582  0.54513067     0.87900
O719        O  0.85753877  0.90447177  0.52740818    -0.76200
O720        O  0.86255896  0.97274756  0.56318932    -0.86500
C721        C  0.91178554  0.84725322  0.46444605     0.87400
O722        O  0.91893581  0.55315065  0.51292750    -0.64700
O723        O  0.60080212  0.99079365  0.46370109    -0.84000
C724        C  0.91067981  0.52993291  0.48226802     0.88300
C725        C  0.83650471  0.92337433  0.54961889     1.09800
H726        H  0.00178982  0.99335534  0.46574509     0.41600
O727        O  0.00030643  0.97217736  0.48685424    -1.06600
O728        O  0.55261648  0.97700436  0.55110142    -0.63300
Ni729      Ni  0.53419117  0.52318648  0.52228473     1.26300
O730        O  0.91231524  0.98576393  0.47684660    -0.63500
O731        O  0.60538389  0.55584977  0.50136606    -0.75800
C732        C  0.55137649  0.61355087  0.56458243     0.87600
O733        O  0.56477229  0.57645203  0.56040592    -0.63000
Ni734      Ni  0.52855743  0.92612879  0.46873522     1.27400
Ni735      Ni  0.92862596  0.93797003  0.50636194     1.26100
H736        H  0.96192661  0.96917695  0.56565404     0.42200
C737        C  0.68298941  0.57733617  0.06191430    -0.13300
C738        C  0.70685133  0.56220611  0.08713833    -0.28500
H739        H  0.70491479  0.61923543  0.05050494     0.15700
H740        H  0.68370358  0.52122710  0.09966732     0.16300
C741        C  0.87297753  0.79561794  0.08394347    -0.13300
C742        C  0.87103650  0.74692447  0.07632276    -0.28500
H743        H  0.84632879  0.79682816  0.10443238     0.15700
H744        H  0.89396440  0.74474454  0.05360748     0.16300
C745        C  0.87865809  0.59550049  0.06932252    -0.13300
C746        C  0.89024554  0.55413519  0.07409796    -0.28500
H747        H  0.88580133  0.61552829  0.04315242     0.15700
H748        H  0.87958346  0.53047671  0.09899773     0.16300
C749        C  0.92947372  0.86618916  0.22453931    -0.15400
C750        C  0.91071076  0.82725713  0.20409292     0.08700
C751        C  0.88989950  0.78344052  0.17891962     0.10500
C752        C  0.87110036  0.74509423  0.15801768    -0.16200
C753        C  0.88804168  0.59627061  0.15319522    -0.15400
C754        C  0.90964648  0.58067743  0.17443338     0.08700
C755        C  0.93059032  0.56027204  0.20106976     0.10500
C756        C  0.94692513  0.53986909  0.22286380    -0.16200
C757        C  0.72270893  0.57733774  0.16484776    -0.15400
C758        C  0.68394236  0.55772008  0.18439166     0.08700
C759        C  0.63728395  0.53667716  0.20588798     0.10500
C760        C  0.59695574  0.51967078  0.22378107    -0.16200
C761        C  0.70680698  0.56083896  0.44157824    -0.13300
C762        C  0.68340499  0.57506291  0.46768574    -0.28500
H763        H  0.68315713  0.52045132  0.42838627     0.15700
H764        H  0.70574038  0.61648371  0.47974919     0.16300
C765        C  0.87346293  0.79394933  0.44631766    -0.13300
C766        C  0.87272112  0.74552942  0.45286365    -0.28500
H767        H  0.84575077  0.79481255  0.42653188     0.15700
H768        H  0.89684443  0.74335300  0.47481310     0.16300
C769        C  0.87685041  0.59078097  0.45862439    -0.13300
C770        C  0.89106684  0.55148081  0.45260192    -0.28500
H771        H  0.88084972  0.60723981  0.48570129     0.15700
H772        H  0.88422293  0.53137580  0.42656894     0.16300
C773        C  0.93123551  0.86848510  0.30542055    -0.15400
C774        C  0.91247610  0.82951680  0.32605251     0.08700
C775        C  0.89108239  0.78461931  0.35076777     0.10500
C776        C  0.87188345  0.74532945  0.37114183    -0.16200
C777        C  0.94526282  0.53790209  0.30450946    -0.15400
C778        C  0.92833570  0.55766682  0.32632125     0.08700
C779        C  0.90725482  0.57797490  0.35288607     0.10500
C780        C  0.88616236  0.59396430  0.37423643    -0.16200
C781        C  0.59751247  0.52040412  0.30329976    -0.15400
C782        C  0.63760591  0.53725505  0.32154600     0.08700
C783        C  0.68370212  0.55795739  0.34376355     0.10500
C784        C  0.72212876  0.57731403  0.36372519    -0.16200
C785        C  0.59012820  0.71440066  0.95270157    -0.13300
C786        C  0.59028896  0.66653250  0.94592229    -0.28500
H787        H  0.56506080  0.71569307  0.97433009     0.15700
H788        H  0.61877411  0.66639682  0.92648456     0.16300
C789        C  0.77994400  0.88392412  0.96828421    -0.13300
C790        C  0.75491046  0.89965527  0.94439318    -0.28500
H791        H  0.75916859  0.84123869  0.97850507     0.15700
H792        H  0.77674124  0.94160849  0.93305301     0.16300
C793        C  0.58411194  0.86653044  0.95952068    -0.13300
C794        C  0.57578992  0.91014964  0.95538431    -0.28500
H795        H  0.57429988  0.84457509  0.98511467     0.15700
H796        H  0.58901529  0.93532464  0.93109273     0.16300
C797        C  0.86615287  0.93992339  0.80540276    -0.15400
C798        C  0.82668482  0.92390817  0.82410776     0.08700
C799        C  0.78108134  0.90403709  0.84661022     0.10500
C800        C  0.74255356  0.88480857  0.86640501    -0.15200
C801        C  0.52445346  0.92850757  0.80461070    -0.15400
C802        C  0.54077639  0.90831163  0.82656406     0.08700
C803        C  0.56010751  0.88702813  0.85370997     0.10500
C804        C  0.57948112  0.86966078  0.87545303    -0.16200
C805        C  0.53205122  0.59443721  0.80582312    -0.15400
C806        C  0.55053893  0.63364306  0.82610562     0.08700
C807        C  0.57195088  0.67821351  0.85081026     0.10500
C808        C  0.59153351  0.71707840  0.87135304    -0.16200
C809        C  0.59001859  0.71471489  0.57627895    -0.13300
C810        C  0.58931245  0.66643031  0.58310946    -0.28500
H811        H  0.56655390  0.71691118  0.55390167     0.15700
H812        H  0.61636213  0.66538210  0.60336002     0.16300
C813        C  0.75633482  0.89833241  0.58766417    -0.13300
C814        C  0.77897239  0.88523831  0.56046104    -0.28500
H815        H  0.78065896  0.93792478  0.60161105     0.15700
H816        H  0.75620740  0.84445854  0.54761515     0.16300
C817        C  0.58794493  0.87095681  0.56936469    -0.13300
C818        C  0.57597795  0.91199035  0.57487755    -0.28500
H819        H  0.58279388  0.85337222  0.54252835     0.15700
H820        H  0.58420781  0.93311678  0.60062747     0.16300
C821        C  0.53051465  0.59314610  0.72480336    -0.15400
C822        C  0.54814863  0.63188400  0.70396931     0.08700
C823        C  0.56889964  0.67629174  0.67882412     0.10500
C824        C  0.58830994  0.71522596  0.65812480    -0.16200
C825        C  0.86501507  0.93799649  0.72565325    -0.15400
C826        C  0.82487971  0.92064510  0.70740329     0.08700
C827        C  0.77869805  0.89993453  0.68528566     0.10500
C828        C  0.74020766  0.88108480  0.66540542    -0.16200
C829        C  0.57869552  0.86993312  0.65367291    -0.15400
C830        C  0.55861324  0.88760420  0.67465610     0.08700
C831        C  0.53834366  0.90922099  0.70095824     0.10500
C832        C  0.52181657  0.92928874  0.72286300    -0.16200
loop_ 
_geom_bond_atom_site_label_1 
_geom_bond_atom_site_label_2 
_geom_bond_distance 
_geom_bond_site_symmetry_2 
_ccdc_geom_bond_type 
C1            H2   1.111       .  S
C1            C7   1.546       .  S
C1            C6   1.551       .  S
C1            C5   1.547       .  S
C3            H4   1.113       .  S
C3            C9   1.520       .  S
C3            C8   1.528       .  S
C3           C10   1.534       .  S
C5            C8   1.373       .  D
C5          C185   1.495       .  S
C6            C9   1.367       .  D
C6          C189   1.491       .  S
C7           C10   1.379       .  D
C7          C193   1.489       .  S
C8          C200   1.439       .  S
C9          C204   1.442       .  S
C10         C205   1.447       .  S
C11          H12   1.113       .  S
C11          C17   1.519       .  S
C11          C16   1.524       .  S
C11          C15   1.530       .  S
C13          H14   1.111       .  S
C13          C19   1.545       .  S
C13          C18   1.544       .  S
C13          C20   1.547       .  S
C15          C18   1.377       .  D
C15         C180   1.437       .  S
C16          C19   1.372       .  D
C16         C184   1.440       .  S
C17          C20   1.365       .  D
C17         C176   1.439       .  S
C18         C169   1.487       .  S
C19         C161   1.488       .  S
C20         C166   1.485       .  S
C21          H22   1.112       .  S
C21          C27   1.533       .  S
C21         C442   1.533       .  S
C21         C233   1.532   1_655  S
C23          H24   1.112       .  S
C23          C30   1.533       .  S
C23         C445   1.530       .  S
C23         C236   1.534   1_655  S
C25         C229   1.532   1_445  S
C25          C28   1.368       .  D
C25         C197   1.439       .  S
C26         C437   1.529       .  S
C26          C29   1.365       .  D
C26         C201   1.440       .  S
C27          C30   1.370       .  D
C27         C208   1.448   1_655  S
C28         C231   1.530   1_445  S
C28         C181   1.439       .  S
C29         C439   1.532       .  S
C29         C173   1.438       .  S
C30         C177   1.437   1_655  S
C31          H32   1.113       .  S
C31          C37   1.520       .  S
C31          C36   1.526       .  S
C31          C35   1.534       .  S
C33          H34   1.111       .  S
C33          C39   1.547       .  S
C33          C38   1.546       .  S
C33          C40   1.551       .  S
C35          C38   1.379       .  D
C35         C156   1.445       .  S
C36          C39   1.373       .  D
C36         C152   1.441       .  S
C37          C40   1.367       .  D
C37         C160   1.443       .  S
C38         C145   1.492       .  S
C39         C142   1.491       .  S
C40         C137   1.490       .  S
C41          H42   1.111       .  S
C41          C47   1.542       .  S
C41          C46   1.547       .  S
C41          C45   1.546       .  S
C43          H44   1.113       .  S
C43          C49   1.518       .  S
C43          C48   1.525       .  S
C43          C50   1.531       .  S
C45          C48   1.373       .  D
C45         C118   1.490       .  S
C46          C49   1.365       .  D
C46         C114   1.483       .  S
C47          C50   1.375       .  D
C47         C121   1.484       .  S
C48         C128   1.439       .  S
C49         C133   1.437       .  S
C50         C129   1.438       .  S
C51          H52   1.112       .  S
C51          C57   1.532       .  S
C51          C55   1.531       .  S
C51         C472   1.529       .  S
C53          H54   1.112       .  S
C53          C58   1.531       .  S
C53          C60   1.533       .  S
C53         C475   1.529       .  S
C55          C58   1.368       .  D
C55         C125   1.439       .  S
C56         C467   1.529   1_455  S
C56          C59   1.363       .  D
C56         C344   1.435       .  S
C57          C60   1.370       .  D
C57         C340   1.442       .  S
C58         C149   1.440       .  S
C59         C469   1.528   1_455  S
C59         C365   1.436       .  S
C60         C361   1.441       .  S
O61          C82   1.275       .  A
O61        Ni483   1.948       .  S
O62          C71   1.265       .  A
O62         Ni85   1.905   1_556  S
O63          H86   0.966       .  S
O63         Ni79   1.910       .  S
O63        Ni483   1.909       .  S
O63        Ni709   1.909       .  S
C64          O81   1.274   1_556  A
C64          O73   1.281       .  A
C64         C165   1.487       .  S
O65          C71   1.275       .  A
O65        Ni500   1.947   1_455  S
O66          C68   1.267       .  A
O66         Ni84   1.898   1_554  S
Ni67         O70   1.940       .  S
Ni67         O72   1.903       .  S
Ni67        O477   1.935   1_455  S
Ni67        O479   1.903       .  S
C68         O286   1.272   1_545  A
C68         C122   1.482       .  S
O69          C75   1.274       .  A
O69         Ni85   1.916       .  S
O70         C283   1.281       .  A
C71         C162   1.477       .  S
O72          C74   1.269   1_554  A
O73        Ni292   1.934       .  S
C74          O80   1.273       .  A
C74         C170   1.481       .  S
C75         O278   1.282   1_545  A
C75         C113   1.485       .  S
H76          O77   0.966       .  S
O77         Ni79   1.910   1_556  S
O77        Ni709   1.908   1_556  S
O77        Ni292   1.910       .  S
O78         C276   1.273       .  A
O78         Ni79   1.936       .  S
Ni79         O83   1.907       .  S
Ni79         O81   1.919       .  S
O80        Ni293   1.930   1_556  S
C82          O83   1.267       .  A
C82         C117   1.479       .  S
Ni84        O481   1.907       .  S
Ni84        O281   1.904   1_545  S
Ni84        O285   1.890   1_545  S
Ni85        O288   1.932   1_544  S
Ni85        O687   1.908   1_545  S
Ni85        O701   1.910   1_444  S
O87         C108   1.277       .  A
O87        Ni509   1.953   1_455  S
O88          C97   1.268       .  A
O88        Ni111   1.908       .  S
O89         H112   0.966       .  S
O89        Ni111   1.908       .  S
O89        Ni301   1.907       .  S
O89        Ni729   1.909       .  S
C90         O107   1.277       .  A
C90         O307   1.282   1_545  A
C90         C138   1.490       .  S
O91          C97   1.277       .  A
O91        Ni526   1.951       .  S
O92          C94   1.269       .  A
O92        Ni110   1.905       .  S
Ni93         O98   1.908       .  S
Ni93        O503   1.949       .  S
Ni93        O304   1.937   1_545  S
Ni93        O297   1.907   1_545  S
C94         O104   1.273       .  A
C94         C194   1.485       .  S
O95         C101   1.276       .  A
O95        Ni111   1.925       .  S
O96         C101   1.281       .  A
O96        Ni301   1.935       .  S
C97         C141   1.481       .  S
O98         C100   1.270       .  A
O99         C298   1.282       .  A
O99        Ni110   1.938       .  S
C100        O314   1.273   1_545  A
C100        C146   1.485       .  S
C101        C190   1.490       .  S
H102        O103   0.966       .  S
O103       Ni111   1.912       .  S
O103       Ni729   1.907       .  S
O103       Ni526   1.907       .  S
O104       Ni313   1.936       .  S
Ni105       O109   1.911       .  S
Ni105       O107   1.925       .  S
Ni105       O312   1.938   1_545  S
Ni105       O713   1.913   1_445  S
Ni105       O727   1.909   1_545  S
O106        C308   1.274       .  A
O106       Ni111   1.939       .  S
C108        O109   1.269       .  A
C108        C186   1.485       .  S
Ni110       O507   1.951   1_455  S
Ni110       O519   1.907       .  S
C113        C114   1.340       .  D
C113        H115   1.087       .  S
C114        H116   1.087       .  S
C117        C118   1.346       .  D
C117        H119   1.086       .  S
C118        H120   1.086       .  S
C121        C122   1.349       .  D
C121        H123   1.086       .  S
C122        H124   1.085       .  S
C125        C126   1.202       .  T
C126        C127   1.406       .  S
C127        C128   1.202       .  T
C129        C130   1.202       .  T
C130        C131   1.407       .  S
C131        C132   1.202       .  T
C132        C265   1.438       .  S
C133        C134   1.200       .  T
C134        C135   1.403       .  S
C135        C136   1.200       .  T
C136        C264   1.436   1_545  S
C137        C138   1.343       .  D
C137        H139   1.087       .  S
C138        H140   1.086       .  S
C141        C142   1.347       .  D
C141        H143   1.086       .  S
C142        H144   1.086       .  S
C145        C146   1.349       .  D
C145        H147   1.086       .  S
C146        H148   1.083       .  S
C149        C150   1.203       .  T
C150        C151   1.407       .  S
C151        C152   1.203       .  T
C153        C268   1.446       .  S
C153        C154   1.207       .  T
C154        C155   1.414       .  S
C155        C156   1.207       .  T
C157        C267   1.441       .  S
C157        C158   1.203       .  T
C158        C159   1.408       .  S
C159        C160   1.203       .  T
C161        C162   1.345       .  D
C161        H163   1.086       .  S
C162        H164   1.086       .  S
C165        C166   1.341       .  D
C165        H167   1.087       .  S
C166        H168   1.087       .  S
C169        C170   1.348       .  D
C169        H171   1.086       .  S
C170        H172   1.083       .  S
C173        C174   1.201       .  T
C174        C175   1.404       .  S
C175        C176   1.201       .  T
C177        C178   1.202       .  T
C178        C179   1.406       .  S
C179        C180   1.202       .  T
C181        C182   1.202       .  T
C182        C183   1.406       .  S
C183        C184   1.202       .  T
C185        C186   1.348       .  D
C185        H187   1.086       .  S
C186        H188   1.086       .  S
C189        C190   1.344       .  D
C189        H191   1.087       .  S
C190        H192   1.086       .  S
C193        C194   1.349       .  D
C193        H195   1.086       .  S
C194        H196   1.083       .  S
C197        C198   1.202       .  T
C198        C199   1.406       .  S
C199        C200   1.202       .  T
C201        C202   1.203       .  T
C202        C203   1.407       .  S
C203        C204   1.203       .  T
C205        C206   1.208       .  T
C206        C207   1.416       .  S
C207        C208   1.208       .  T
C209        H210   1.111       .  S
C209        C215   1.547       .  S
C209        C214   1.551       .  S
C209        C213   1.548       .  S
C211        H212   1.113       .  S
C211        C217   1.520       .  S
C211        C216   1.526       .  S
C211        C218   1.533       .  S
C213        C216   1.373       .  D
C213        C393   1.492       .  S
C214        C217   1.367       .  D
C214        C397   1.490       .  S
C215        C218   1.378       .  D
C215        C401   1.493       .  S
C216        C408   1.441       .  S
C217        C412   1.442       .  S
C218        C413   1.442       .  S
C219        H220   1.113       .  S
C219        C225   1.528       .  S
C219        C224   1.529       .  S
C219        C223   1.533       .  S
C221        H222   1.112       .  S
C221        C227   1.528       .  S
C221        C226   1.541       .  S
C221        C228   1.534       .  S
C223        C226   1.376       .  D
C223        C388   1.443       .  S
C224        C227   1.369       .  D
C224        C392   1.444       .  S
C225        C228   1.376       .  D
C225        C384   1.435       .  S
C226        C377   1.487       .  S
C227        C369   1.465       .  S
C228        C374   1.494       .  S
C229        H230   1.112       .  S
C229        C235   1.532       .  S
C229        C650   1.530       .  S
C231        H232   1.112       .  S
C231        C653   1.530       .  S
C231        C238   1.533       .  S
C233        C236   1.368       .  D
C233        C405   1.440       .  S
C234        C645   1.531       .  S
C234        C237   1.365       .  D
C234        C409   1.440       .  S
C235        C238   1.370       .  D
C235        C416   1.442   1_655  S
C236        C389   1.444       .  S
C237        C647   1.528       .  S
C237        C381   1.435       .  S
C238        C385   1.443   1_655  S
C239        H240   1.113       .  S
C239        C245   1.519       .  S
C239        C244   1.525       .  S
C239        C243   1.532       .  S
C241        H242   1.111       .  S
C241        C247   1.546       .  S
C241        C246   1.545       .  S
C241        C248   1.549       .  S
C243        C246   1.377       .  D
C243        C364   1.441       .  S
C244        C247   1.373       .  D
C244        C360   1.440       .  S
C245        C248   1.366       .  D
C245        C368   1.438       .  S
C246        C353   1.489       .  S
C247        C350   1.489       .  S
C248        C345   1.489       .  S
C249        H250   1.111       .  S
C249        C255   1.544       .  S
C249        C254   1.546       .  S
C249        C253   1.543       .  S
C251        H252   1.113       .  S
C251        C257   1.520       .  S
C251        C256   1.531       .  S
C251        C258   1.533       .  S
C253        C256   1.374       .  D
C253        C326   1.486       .  S
C254        C257   1.364       .  D
C254        C322   1.487       .  S
C255        C258   1.377       .  D
C255        C329   1.490       .  S
C256        C336   1.445       .  S
C257        C341   1.435       .  S
C258        C337   1.442       .  S
C259        H260   1.113       .  S
C259        C265   1.532   1_565  S
C259        C680   1.528   1_565  S
C259        C263   1.531       .  S
C261        H262   1.112       .  S
C261        C683   1.532   1_565  S
C261        C266   1.533       .  S
C261        C268   1.533   1_565  S
C263        C266   1.369       .  D
C263        C333   1.444       .  S
C264        C675   1.532   1_455  S
C264        C267   1.365   1_565  D
C265        C268   1.370       .  D
C266        C357   1.438       .  S
C267        C677   1.529   1_445  S
O269        C290   1.270       .  A
O269       Ni691   1.923       .  S
O270        C279   1.264       .  A
O270       Ni293   1.908   1_556  S
O271        H294   0.966       .  S
O271       Ni691   1.898       .  S
O271       Ni501   1.910   1_565  S
O271       Ni287   1.930       .  S
C272        O289   1.289       .  A
C272        O281   1.275       .  A
C272        C373   1.476       .  S
O273        C279   1.267       .  A
O273       Ni708   1.912   1_455  S
O274        C276   1.269       .  A
O274       Ni292   1.904   1_554  S
Ni275       O685   1.949   1_455  S
Ni275       O278   1.937       .  S
Ni275       O280   1.903       .  S
Ni275       O687   1.908       .  S
C276        C330   1.484       .  S
O277        C283   1.270       .  A
O277       Ni293   1.910       .  S
C279        C370   1.466       .  S
O280        C282   1.269   1_554  A
C282        O288   1.271       .  A
C282        C378   1.482       .  S
C283        C321   1.483       .  S
H284        O285   0.966       .  S
O285       Ni501   1.921   1_566  S
O285       Ni287   1.902   1_556  S
O286       Ni287   1.935       .  S
Ni287       O291   1.931       .  S
Ni287       O289   1.954   1_554  S
C290        O291   1.273       .  A
C290        C325   1.484       .  S
Ni292       O689   1.946       .  S
Ni293       O479   1.909       .  S
Ni293       O493   1.901   1_454  S
O295        C316   1.276       .  A
O295       Ni717   1.950   1_455  S
O296        C305   1.267       .  A
O296       Ni319   1.907       .  S
O297        H320   0.966       .  S
O297       Ni319   1.906       .  S
O297       Ni521   1.910   1_565  S
C298        O315   1.277       .  A
C298        C346   1.490       .  S
O299        C305   1.276       .  A
O299       Ni734   1.948       .  S
O300        C302   1.269       .  A
O300       Ni318   1.905       .  S
Ni301       O711   1.945       .  S
Ni301       O306   1.903       .  S
C302        O312   1.274       .  A
C302        C402   1.486       .  S
O303        C309   1.277       .  A
O303       Ni319   1.926       .  S
O304        C309   1.282       .  A
C305        C349   1.479       .  S
O306        C308   1.269       .  A
O307       Ni318   1.936       .  S
C308        C354   1.485       .  S
C309        C398   1.491       .  S
H310        O311   0.966       .  S
O311       Ni319   1.913       .  S
O311       Ni521   1.908   1_565  S
O311       Ni734   1.908       .  S
Ni313       O317   1.910       .  S
Ni313       O315   1.924       .  S
Ni313       O505   1.913   1_455  S
Ni313       O519   1.909       .  S
O314       Ni319   1.934       .  S
C316        O317   1.268       .  A
C316        C394   1.482       .  S
Ni318       O715   1.950   1_455  S
Ni318       O727   1.908       .  S
C321        C322   1.338       .  D
C321        H323   1.087       .  S
C322        H324   1.087       .  S
C325        C326   1.348       .  D
C325        H327   1.086       .  S
C326        H328   1.086       .  S
C329        C330   1.349       .  D
C329        H331   1.086       .  S
C330        H332   1.084       .  S
C333        C334   1.206       .  T
C334        C335   1.413       .  S
C335        C336   1.206       .  T
C337        C338   1.205       .  T
C338        C339   1.411       .  S
C339        C340   1.205       .  T
C341        C342   1.199       .  T
C342        C343   1.401       .  S
C343        C344   1.199       .  T
C345        C346   1.343       .  D
C345        H347   1.087       .  S
C346        H348   1.086       .  S
C349        C350   1.346       .  D
C349        H351   1.086       .  S
C350        H352   1.086       .  S
C353        C354   1.350       .  D
C353        H355   1.086       .  S
C354        H356   1.084       .  S
C357        C358   1.202       .  T
C358        C359   1.407       .  S
C359        C360   1.202       .  T
C361        C362   1.204       .  T
C362        C363   1.409       .  S
C363        C364   1.204       .  T
C365        C366   1.200       .  T
C366        C367   1.403       .  S
C367        C368   1.200       .  T
C369        C370   1.339       .  D
C369        H371   1.087       .  S
C370        H372   1.087       .  S
C373        C374   1.339       .  D
C373        H375   1.086       .  S
C374        H376   1.086       .  S
C377        C378   1.347       .  D
C377        H379   1.086       .  S
C378        H380   1.084       .  S
C381        C382   1.199       .  T
C382        C383   1.402       .  S
C383        C384   1.200       .  T
C385        C386   1.205       .  T
C386        C387   1.412       .  S
C387        C388   1.206       .  T
C389        C390   1.205       .  T
C390        C391   1.412       .  S
C391        C392   1.205       .  T
C393        C394   1.347       .  D
C393        H395   1.086       .  S
C394        H396   1.086       .  S
C397        C398   1.344       .  D
C397        H399   1.087       .  S
C398        H400   1.086       .  S
C401        C402   1.351       .  D
C401        H403   1.086       .  S
C402        H404   1.083       .  S
C405        C406   1.203       .  T
C406        C407   1.408       .  S
C407        C408   1.203       .  T
C409        C410   1.203       .  T
C410        C411   1.408       .  S
C411        C412   1.203       .  T
C413        C414   1.205       .  T
C414        C415   1.410       .  S
C415        C416   1.204       .  T
C417        H418   1.111       .  S
C417        C423   1.548       .  S
C417        C422   1.552       .  S
C417        C421   1.549       .  S
C419        H420   1.113       .  S
C419        C425   1.517       .  S
C419        C424   1.523       .  S
C419        C426   1.531       .  S
C421        C424   1.373       .  D
C421        C601   1.490       .  S
C422        C425   1.366       .  D
C422        C605   1.489       .  S
C423        C426   1.379       .  D
C423        C609   1.495       .  S
C424        C616   1.441       .  S
C425        C620   1.440       .  S
C426        C621   1.440       .  S
C427        H428   1.113       .  S
C427        C433   1.527       .  S
C427        C432   1.532       .  S
C427        C431   1.534       .  S
C429        H430   1.112       .  S
C429        C435   1.530       .  S
C429        C434   1.548       .  S
C429        C436   1.537       .  S
C431        C434   1.378       .  D
C431        C596   1.452       .  S
C432        C435   1.369       .  D
C432        C600   1.439       .  S
C433        C436   1.377       .  D
C433        C592   1.444       .  S
C434        C585   1.491       .  S
C435        C577   1.476       .  S
C436        C582   1.491       .  S
C437        H438   1.112       .  S
C437        C443   1.535       .  S
C437        C649   1.531       .  S
C439        H440   1.112       .  S
C439        C652   1.534       .  S
C439        C446   1.535       .  S
C441        C645   1.532   1_545  S
C441        C444   1.369       .  D
C441        C613   1.440       .  S
C442        C445   1.367       .  D
C442        C617   1.438       .  S
C443        C446   1.373       .  D
C443        C624   1.440       .  S
C444        C647   1.530   1_545  S
C444        C597   1.439       .  S
C445        C589   1.443       .  S
C446        C593   1.452       .  S
C447        H448   1.113       .  S
C447        C453   1.516       .  S
C447        C452   1.523       .  S
C447        C451   1.531       .  S
C449        H450   1.111       .  S
C449        C455   1.549       .  S
C449        C454   1.546       .  S
C449        C456   1.553       .  S
C451        C454   1.377       .  D
C451        C572   1.435       .  S
C452        C455   1.374       .  D
C452        C568   1.442       .  S
C453        C456   1.366       .  D
C453        C576   1.441       .  S
C454        C561   1.494       .  S
C455        C558   1.492       .  S
C456        C553   1.488       .  S
C457        H458   1.111       .  S
C457        C463   1.549       .  S
C457        C462   1.544       .  S
C457        C461   1.540       .  S
C459        H460   1.113       .  S
C459        C465   1.526       .  S
C459        C464   1.532       .  S
C459        C466   1.532       .  S
C461        C464   1.370       .  D
C461        C534   1.488       .  S
C462        C465   1.374       .  D
C462        C530   1.497       .  S
C463        C466   1.378       .  D
C463        C537   1.490       .  S
C464        C544   1.440       .  S
C465        C549   1.439       .  S
C466        C545   1.451       .  S
C467        H468   1.112       .  S
C467        C473   1.532       .  S
C467        C471   1.532       .  S
C469        H470   1.112       .  S
C469        C474   1.531       .  S
C469        C476   1.532       .  S
C471        C474   1.369       .  D
C471        C541   1.440       .  S
C472        C475   1.364       .  D
C472        C760   1.434       .  S
C473        C476   1.370       .  D
C473        C756   1.441       .  S
C474        C565   1.440       .  S
C475        C781   1.438       .  S
C476        C777   1.439       .  S
O477        C498   1.274       .  A
O478        C487   1.270       .  A
O478       Ni501   1.927   1_556  S
O479        H502   0.966       .  S
O479       Ni495   1.932   1_455  S
C480        O497   1.291       .  A
C480        O489   1.275       .  A
C480        C581   1.474       .  S
O481        C487   1.266       .  A
O482        C484   1.268       .  A
O482       Ni500   1.901   1_554  S
Ni483       O486   1.937       .  S
Ni483       O488   1.903       .  S
C484        O702   1.274   1_545  A
C484        C538   1.484       .  S
O485        C491   1.282       .  A
O485       Ni501   1.937       .  S
O486        C699   1.281       .  A
C487        C578   1.479       .  S
O488        C490   1.269   1_554  A
O489       Ni708   1.901       .  S
C490        O496   1.274       .  A
C490        C586   1.486       .  S
C491        O694   1.279   1_545  A
C491        C529   1.483       .  S
H492        O493   0.966       .  S
O493       Ni495   1.897   1_556  S
O493       Ni708   1.891       .  S
O494        C692   1.271       .  A
O494       Ni495   1.933       .  S
Ni495       O499   1.927       .  S
Ni495       O497   1.954   1_554  S
O496       Ni709   1.938   1_556  S
C498        O499   1.275       .  A
C498        C533   1.486       .  S
Ni500       O697   1.936   1_545  S
Ni500       O701   1.909   1_545  S
Ni501       O704   1.929   1_544  S
O503        C524   1.276       .  A
O504        C513   1.267       .  A
O504       Ni527   1.906       .  S
O505        H528   0.966       .  S
O505       Ni717   1.908       .  S
O505       Ni527   1.908       .  S
C506        O523   1.275       .  A
C506        O723   1.282   1_545  A
C506        C554   1.489       .  S
O507        C513   1.276       .  A
O508        C510   1.270       .  A
O508       Ni526   1.907       .  S
Ni509       O720   1.942   1_545  S
Ni509       O514   1.906       .  S
Ni509       O713   1.910   1_545  S
C510        O520   1.274       .  A
C510        C610   1.487       .  S
O511        C517   1.275       .  A
O511       Ni527   1.923       .  S
O512        C517   1.282       .  A
O512       Ni717   1.938       .  S
C513        C557   1.481       .  S
O514        C516   1.269       .  A
O515        C714   1.283       .  A
O515       Ni526   1.940       .  S
C516        O730   1.275   1_545  A
C516        C562   1.488       .  S
C517        C606   1.491       .  S
H518        O519   0.966       .  S
O519       Ni527   1.909   1_455  S
O520       Ni729   1.938       .  S
Ni521       O728   1.936   1_545  S
Ni521       O525   1.907       .  S
Ni521       O523   1.920       .  S
O522        C724   1.274       .  A
O522       Ni527   1.937       .  S
C524        O525   1.267       .  A
C524        C602   1.480       .  S
C529        C530   1.347       .  D
C529        H531   1.086       .  S
C530        H532   1.086       .  S
C533        C534   1.349       .  D
C533        H535   1.086       .  S
C534        H536   1.086       .  S
C537        C538   1.350       .  D
C537        H539   1.086       .  S
C538        H540   1.083       .  S
C541        C542   1.203       .  T
C542        C543   1.408       .  S
C543        C544   1.203       .  T
C545        C546   1.210       .  T
C546        C547   1.419       .  S
C547        C548   1.210       .  T
C548        C681   1.451       .  S
C549        C550   1.201       .  T
C550        C551   1.405       .  S
C551        C552   1.201       .  T
C552        C680   1.438       .  S
C553        C554   1.342       .  D
C553        H555   1.087       .  S
C554        H556   1.087       .  S
C557        C558   1.346       .  D
C557        H559   1.086       .  S
C558        H560   1.086       .  S
C561        C562   1.352       .  D
C561        H563   1.086       .  S
C562        H564   1.083       .  S
C565        C566   1.203       .  T
C566        C567   1.408       .  S
C567        C568   1.204       .  T
C569        C684   1.435       .  S
C569        C570   1.201       .  T
C570        C571   1.405       .  S
C571        C572   1.201       .  T
C573        C683   1.439       .  S
C573        C574   1.202       .  T
C574        C575   1.406       .  S
C575        C576   1.202       .  T
C577        C578   1.346       .  D
C577        H579   1.086       .  S
C578        H580   1.086       .  S
C581        C582   1.337       .  D
C581        H583   1.087       .  S
C582        H584   1.086       .  S
C585        C586   1.350       .  D
C585        H587   1.086       .  S
C586        H588   1.083       .  S
C589        C590   1.205       .  T
C590        C591   1.410       .  S
C591        C592   1.205       .  T
C593        C594   1.211       .  T
C594        C595   1.421       .  S
C595        C596   1.211       .  T
C597        C598   1.203       .  T
C598        C599   1.407       .  S
C599        C600   1.203       .  T
C601        C602   1.346       .  D
C601        H603   1.086       .  S
C602        H604   1.086       .  S
C605        C606   1.343       .  D
C605        H607   1.087       .  S
C606        H608   1.087       .  S
C609        C610   1.351       .  D
C609        H611   1.086       .  S
C610        H612   1.083       .  S
C613        C614   1.203       .  T
C614        C615   1.408       .  S
C615        C616   1.203       .  T
C617        C618   1.201       .  T
C618        C619   1.405       .  S
C619        C620   1.202       .  T
C621        C622   1.204       .  T
C622        C623   1.410       .  S
C623        C624   1.204       .  T
C625        H626   1.111       .  S
C625        C631   1.545       .  S
C625        C630   1.550       .  S
C625        C629   1.548       .  S
C627        H628   1.113       .  S
C627        C633   1.519       .  S
C627        C632   1.525       .  S
C627        C634   1.534       .  S
C629        C632   1.374       .  D
C629        C809   1.487       .  S
C630        C633   1.365       .  D
C630        C813   1.489       .  S
C631        C634   1.378       .  D
C631        C817   1.493       .  S
C632        C824   1.446       .  S
C633        C828   1.439       .  S
C634        C829   1.440       .  S
C635        H636   1.113       .  S
C635        C641   1.516       .  S
C635        C640   1.525       .  S
C635        C639   1.531       .  S
C637        H638   1.111       .  S
C637        C643   1.543       .  S
C637        C642   1.541       .  S
C637        C644   1.547       .  S
C639        C642   1.376       .  D
C639        C804   1.440       .  S
C640        C643   1.372       .  D
C640        C808   1.437       .  S
C641        C644   1.363       .  D
C641        C800   1.437       .  S
C642        C793   1.482       .  S
C643        C785   1.488       .  S
C644        C790   1.480       .  S
C645        H646   1.112       .  S
C645        C651   1.534       .  S
C647        H648   1.113       .  S
C647        C654   1.529       .  S
C649        C652   1.369       .  D
C649        C821   1.445       .  S
C650        C653   1.365       .  D
C650        C825   1.438       .  S
C651        C654   1.370       .  D
C651        C832   1.440       .  S
C652        C805   1.437       .  S
C653        C797   1.436       .  S
C654        C801   1.440       .  S
C655        H656   1.113       .  S
C655        C661   1.518       .  S
C655        C660   1.525       .  S
C655        C659   1.533       .  S
C657        H658   1.111       .  S
C657        C663   1.549       .  S
C657        C662   1.545       .  S
C657        C664   1.551       .  S
C659        C662   1.378       .  D
C659        C780   1.438       .  S
C660        C663   1.374       .  D
C660        C776   1.444       .  S
C661        C664   1.365       .  D
C661        C784   1.440       .  S
C662        C769   1.493       .  S
C663        C766   1.491       .  S
C664        C761   1.488       .  S
C665        H666   1.111       .  S
C665        C671   1.544       .  S
C665        C670   1.548       .  S
C665        C669   1.545       .  S
C667        H668   1.113       .  S
C667        C673   1.515       .  S
C667        C672   1.523       .  S
C667        C674   1.530       .  S
C669        C672   1.373       .  D
C669        C742   1.489       .  S
C670        C673   1.364       .  D
C670        C738   1.484       .  S
C671        C674   1.376       .  D
C671        C745   1.485       .  S
C672        C752   1.436       .  S
C673        C757   1.435       .  S
C674        C753   1.440       .  S
C675        H676   1.112       .  S
C675        C681   1.532   1_565  S
C675        C679   1.532       .  S
C677        H678   1.112       .  S
C677        C682   1.531       .  S
C677        C684   1.534   1_565  S
C679        C682   1.368       .  D
C679        C749   1.434       .  S
C680        C683   1.365       .  D
C681        C684   1.371       .  D
C682        C773   1.444       .  S
O685        C706   1.275       .  A
O686        C695   1.266       .  A
O686       Ni709   1.906   1_556  S
O687        H710   0.966       .  S
O687       Ni703   1.904   1_455  S
C688        O705   1.272   1_556  A
C688        O697   1.281       .  A
C688        C789   1.483       .  S
O689        C695   1.275       .  A
O690        C692   1.267       .  A
O690       Ni708   1.899   1_554  S
Ni691       O694   1.925       .  S
Ni691       O696   1.902       .  S
C692        C746   1.481       .  S
O693        C699   1.273       .  A
O693       Ni709   1.916       .  S
C695        C786   1.479       .  S
O696        C698   1.268   1_554  A
C698        O704   1.270       .  A
C698        C794   1.480       .  S
C699        C737   1.486       .  S
H700        O701   0.966       .  S
O701       Ni703   1.910   1_556  S
O702       Ni703   1.937       .  S
Ni703       O707   1.905       .  S
Ni703       O705   1.912       .  S
C706        O707   1.265       .  A
C706        C741   1.478       .  S
O711        C732   1.275       .  A
O712        C721   1.267       .  A
O712       Ni735   1.908       .  S
O713        H736   0.966       .  S
O713       Ni735   1.911       .  S
C714        O731   1.275       .  A
C714        C762   1.489       .  S
O715        C721   1.276       .  A
O716        C718   1.270       .  A
O716       Ni734   1.908       .  S
Ni717       O722   1.907       .  S
C718        O728   1.274       .  A
C718        C818   1.486       .  S
O719        C725   1.273       .  A
O719       Ni735   1.917       .  S
O720        C725   1.282       .  A
C721        C765   1.481       .  S
O722        C724   1.270       .  A
O723       Ni734   1.939       .  S
C724        C770   1.487       .  S
C725        C814   1.489       .  S
H726        O727   0.966       .  S
O727       Ni735   1.908   1_455  S
Ni729       O733   1.907       .  S
Ni729       O731   1.919       .  S
O730       Ni735   1.940       .  S
C732        O733   1.267       .  A
C732        C810   1.478       .  S
C737        C738   1.340       .  D
C737        H739   1.087       .  S
C738        H740   1.087       .  S
C741        C742   1.345       .  D
C741        H743   1.086       .  S
C742        H744   1.086       .  S
C745        C746   1.347       .  D
C745        H747   1.086       .  S
C746        H748   1.084       .  S
C749        C750   1.200       .  T
C750        C751   1.402       .  S
C751        C752   1.200       .  T
C753        C754   1.204       .  T
C754        C755   1.409       .  S
C755        C756   1.204       .  T
C757        C758   1.199       .  T
C758        C759   1.401       .  S
C759        C760   1.199       .  T
C761        C762   1.341       .  D
C761        H763   1.087       .  S
C762        H764   1.087       .  S
C765        C766   1.346       .  D
C765        H767   1.086       .  S
C766        H768   1.086       .  S
C769        C770   1.351       .  D
C769        H771   1.086       .  S
C770        H772   1.083       .  S
C773        C774   1.205       .  T
C774        C775   1.411       .  S
C775        C776   1.205       .  T
C777        C778   1.203       .  T
C778        C779   1.408       .  S
C779        C780   1.203       .  T
C781        C782   1.201       .  T
C782        C783   1.405       .  S
C783        C784   1.201       .  T
C785        C786   1.345       .  D
C785        H787   1.086       .  S
C786        H788   1.086       .  S
C789        C790   1.338       .  D
C789        H791   1.087       .  S
C790        H792   1.087       .  S
C793        C794   1.345       .  D
C793        H795   1.086       .  S
C794        H796   1.085       .  S
C797        C798   1.200       .  T
C798        C799   1.403       .  S
C799        C800   1.200       .  T
C801        C802   1.204       .  T
C802        C803   1.409       .  S
C803        C804   1.204       .  T
C805        C806   1.201       .  T
C806        C807   1.404       .  S
C807        C808   1.201       .  T
C809        C810   1.345       .  D
C809        H811   1.086       .  S
C810        H812   1.086       .  S
C813        C814   1.341       .  D
C813        H815   1.087       .  S
C814        H816   1.087       .  S
C817        C818   1.350       .  D
C817        H819   1.086       .  S
C818        H820   1.083       .  S
C821        C822   1.206       .  T
C822        C823   1.413       .  S
C823        C824   1.206       .  T
C825        C826   1.201       .  T
C826        C827   1.404       .  S
C827        C828   1.201       .  T
C829        C830   1.204       .  T
C830        C831   1.409       .  S
C831        C832   1.204       .  T
