geometry optimzed in LAMMPS
_audit_creation_date              2020-12-01 
_audit_creation_method            'lammps2cif' 
_symmetry_space_group_name_H-M    'P1' 
_symmetry_Int_Tables_number       1 
_symmetry_cell_setting            triclinic 
loop_ 
_symmetry_equiv_pos_as_xyz 
  x,y,z 
_cell_length_a                    47.31624082 
_cell_length_b                    47.2868561699969 
_cell_length_c                    39.11783580365788 
_cell_angle_alpha                 89.91113531040563 
_cell_angle_beta                  90.02574959507396 
_cell_angle_gamma                 120.04616993326584 
loop_ 
_atom_site_label 
_atom_site_type_symbol 
_atom_site_fract_x 
_atom_site_fract_y 
_atom_site_fract_z 
_atom_site_charge 
C1          C  0.45487521  0.95906327  0.06031226    -0.09000
C2          C  0.47494463  0.94681003  0.07061362    -0.02900
C3          C  0.50535740  0.95725531  0.05555923    -0.09000
C4          C  0.51643090  0.98100345  0.02926897     0.12000
C5          C  0.49639623  0.99392438  0.01863144    -0.00800
C6          C  0.46545696  0.98287236  0.03417056     0.11800
C7          C  0.44605094  0.99596209  0.02328175    -0.10800
C8          C  0.45643515  0.01901418  0.99706362    -0.10800
C9          C  0.48679538  0.03009796  0.98111406     0.11800
C10         C  0.50715465  0.01769551  0.99218165    -0.00800
C11         C  0.54679672  0.99208839  0.01333418    -0.10900
C12         C  0.55736066  0.01543355  0.98732671    -0.10900
C13         C  0.53797591  0.02855178  0.97640357     0.12000
C14         C  0.54817380  0.05178332  0.94964491    -0.09000
C15         C  0.52773390  0.06348388  0.93896308    -0.02900
C16         C  0.49721961  0.05283426  0.95391457    -0.09000
H17         H  0.42250416  0.98832852  0.03489175     0.09200
H18         H  0.44045124  0.02805465  0.98933054     0.09200
H19         H  0.56253326  0.98267590  0.02081741     0.09400
H20         H  0.58086793  0.02300413  0.97563817     0.09400
H21         H  0.46650460  0.92837105  0.09051428     0.05900
H22         H  0.53562356  0.08107226  0.91823245     0.05900
O23         O  0.51872782  0.79029485  0.21771440    -0.72600
O24         O  0.51724935  0.73195398  0.28673132    -0.72600
O25         O  0.51806395  0.78962158  0.28704038    -0.72600
O26         O  0.51787611  0.73274110  0.21749323    -0.72700
O27         O  0.57216930  0.75939965  0.21756836    -0.72600
O28         O  0.57235650  0.81649037  0.28789644    -0.72600
O29         O  0.57159600  0.75832819  0.28700742    -0.72600
O30         O  0.57301422  0.81732461  0.21812561    -0.72600
Ni31       Ni  0.51612138  0.76027480  0.25226243     1.25400
Ni32       Ni  0.57425564  0.78888771  0.25272259     1.25400
C33         C  0.54597706  0.81326235  0.20615729     0.89600
C34         C  0.54413431  0.73514450  0.29797875     0.89500
C35         C  0.54507646  0.81243925  0.29911599     0.89600
C36         C  0.54488365  0.73656222  0.20587834     0.89700
O37         O  0.42263689  0.24061561  0.71731828    -0.72600
O38         O  0.42221018  0.18415445  0.78830730    -0.72600
O39         O  0.42452863  0.24296311  0.78664463    -0.72600
O40         O  0.42063373  0.18204771  0.71868363    -0.72700
O41         O  0.47497759  0.20827716  0.71760617    -0.72600
O42         O  0.47872867  0.26818939  0.78491922    -0.72600
O43         O  0.47649696  0.20999146  0.78673612    -0.72600
O44         O  0.47690921  0.26617030  0.71615530    -0.72600
Ni45       Ni  0.42049730  0.21145153  0.75281291     1.25400
Ni46       Ni  0.47861680  0.23897317  0.75132630     1.25400
C47         C  0.44995072  0.26295233  0.70517053     0.89600
C48         C  0.44936854  0.18784391  0.79936994     0.89500
C49         C  0.45248853  0.26599949  0.79670966     0.89600
C50         C  0.44743185  0.18552764  0.70663962     0.89700
O51         O  0.79155781  0.26684099  0.71634318    -0.72600
O52         O  0.73354722  0.20962436  0.78488692    -0.72600
O53         O  0.79113394  0.26650780  0.78524931    -0.72600
O54         O  0.73390146  0.20979660  0.71579287    -0.72700
O55         O  0.76027374  0.18189236  0.71552988    -0.72600
O56         O  0.81798299  0.23902540  0.78550307    -0.72600
O57         O  0.75963936  0.18137362  0.78505857    -0.72600
O58         O  0.81854678  0.23953951  0.71620357    -0.72600
Ni59       Ni  0.76159909  0.23908947  0.75054779     1.25400
Ni60       Ni  0.79006034  0.20940769  0.75058719     1.25400
C61         C  0.81495798  0.26315159  0.70521379     0.89600
C62         C  0.73680692  0.18603008  0.79631031     0.89500
C63         C  0.81434409  0.26256020  0.79654659     0.89600
C64         C  0.73735063  0.18637304  0.70418170     0.89700
O65         O  0.24008222  0.81977622  0.21522449    -0.72600
O66         O  0.18140331  0.76096733  0.28375640    -0.72600
O67         O  0.23842776  0.82021904  0.28471481    -0.72600
O68         O  0.18351080  0.76100482  0.21414842    -0.72700
O69         O  0.21228884  0.73562252  0.21634433    -0.72600
O70         O  0.26651807  0.79407402  0.28626586    -0.72600
O71         O  0.21022868  0.73561073  0.28526810    -0.72600
O72         O  0.26826404  0.79372599  0.21743642    -0.72600
Ni73       Ni  0.20978452  0.79143425  0.24946272     1.25400
Ni74       Ni  0.24027936  0.76390650  0.25145408     1.25400
C75         C  0.26394843  0.81632974  0.20499948     0.89600
C76         C  0.18584345  0.73808490  0.29544191     0.89500
C77         C  0.26200115  0.81714906  0.29679972     0.89600
C78         C  0.18893531  0.73847142  0.20349922     0.89700
C79         C  0.95964401  0.50559962  0.94120362    -0.09000
C80         C  0.94904043  0.47452990  0.92776430    -0.02900
C81         C  0.96001979  0.45414707  0.94064111    -0.09000
C82         C  0.98246298  0.46515337  0.96820021     0.12000
C83         C  0.99407772  0.49707402  0.98167328    -0.00800
C84         C  0.98273441  0.51744747  0.96800651     0.11800
C85         C  0.99472886  0.54898261  0.98145520    -0.10800
C86         C  0.01763436  0.56049894  0.00786585    -0.10800
C87         C  0.02897587  0.54070857  0.02205353     0.11800
C88         C  0.01696201  0.50859982  0.00896794    -0.00800
C89         C  0.99380224  0.44537146  0.98243366    -0.10900
C90         C  0.01595134  0.45652993  0.00953483    -0.10900
C91         C  0.02786949  0.48802914  0.02306367     0.12000
C92         C  0.05038980  0.49961373  0.05042052    -0.09000
C93         C  0.06204843  0.53122937  0.06286928    -0.02900
C94         C  0.05200590  0.55200865  0.04903121    -0.09000
H95         H  0.98661644  0.56508549  0.97143037     0.09200
H96         H  0.02628746  0.58502097  0.01727187     0.09200
H97         H  0.98557401  0.42103966  0.97271003     0.09400
H98         H  0.02378961  0.44028528  0.01977626     0.09400
H99         H  0.93124758  0.46572636  0.90726223     0.05900
H100        H  0.07968982  0.54001922  0.08351268     0.05900
C101        C  0.95615630  0.50177172  0.55564292    -0.09000
C102        C  0.94708652  0.47106334  0.56928354    -0.02900
C103        C  0.95756649  0.45083820  0.55502208    -0.09000
C104        C  0.97835060  0.46172162  0.52607350     0.12000
C105        C  0.98808606  0.49304208  0.51191773    -0.00800
C106        C  0.97677735  0.51308647  0.52660982     0.11800
C107        C  0.98674016  0.54392812  0.51220068    -0.10800
C108        C  0.00741571  0.55503032  0.48383495    -0.10800
C109        C  0.01900729  0.53572997  0.46897140     0.11800
C110        C  0.00925431  0.50439577  0.48308680    -0.00800
C111        C  0.98991196  0.44240517  0.51116677    -0.10900
C112        C  0.01091578  0.45368348  0.48302629    -0.10900
C113        C  0.02097572  0.48457560  0.46869692     0.12000
C114        C  0.04232388  0.49629202  0.44021662    -0.09000
C115        C  0.05112302  0.52687698  0.42639493    -0.02900
C116        C  0.04011815  0.54681753  0.44030768    -0.09000
H117        H  0.97870387  0.55986679  0.52291977     0.09200
H118        H  0.01431348  0.57888079  0.47362655     0.09200
H119        H  0.98297205  0.41854229  0.52135172     0.09400
H120        H  0.01921910  0.43789919  0.47244969     0.09400
H121        H  0.93080773  0.46234196  0.59114539     0.05900
H122        H  0.06789275  0.53588842  0.40495806     0.05900
O123        O  0.18302190  0.42374082  0.21382627    -0.72600
O124        O  0.23960337  0.42062322  0.28247143    -0.72600
O125        O  0.18377539  0.42417891  0.28326244    -0.72600
O126        O  0.23871721  0.42026298  0.21286603    -0.72700
O127        O  0.26770722  0.47463197  0.21231168    -0.72600
O128        O  0.21362612  0.47842719  0.28306697    -0.72600
O129        O  0.26910713  0.47492897  0.28181203    -0.72600
O130        O  0.21242165  0.47799376  0.21391281    -0.72600
Ni131      Ni  0.21023516  0.42024426  0.24816539     1.25400
Ni132      Ni  0.24178518  0.47836748  0.24779787     1.25400
C133        C  0.18833018  0.45145886  0.20253005     0.89600
C134        C  0.26378770  0.44734232  0.29348656     0.89500
C135        C  0.18939679  0.45200127  0.29457397     0.89600
C136        C  0.26208900  0.44696921  0.20064683     0.89700
O137        O  0.72977636  0.51687323  0.71488720    -0.72600
O138        O  0.78724988  0.51674743  0.78383692    -0.72600
O139        O  0.73001167  0.51687090  0.78409049    -0.72600
O140        O  0.78693303  0.51660365  0.71493474    -0.72700
O141        O  0.81446430  0.57097935  0.71483240    -0.72600
O142        O  0.75705355  0.57119786  0.78435059    -0.72600
O143        O  0.81460301  0.57105694  0.78396390    -0.72600
O144        O  0.75685644  0.57120699  0.71473381    -0.72600
Ni145      Ni  0.75750300  0.51490178  0.74944736     1.25400
Ni146      Ni  0.78668161  0.57307558  0.74945002     1.25400
C147        C  0.73368729  0.54398123  0.70331309     0.89600
C148        C  0.81079880  0.54380793  0.79499066     0.89500
C149        C  0.73392020  0.54390622  0.79573447     0.89600
C150        C  0.81048074  0.54367511  0.70382400     0.89700
C151        C  0.50365784  0.55083752  0.05551961    -0.09000
C152        C  0.47171890  0.53066837  0.06707513    -0.02900
C153        C  0.45178958  0.49929947  0.05390061    -0.09000
C154        C  0.46400939  0.48766555  0.02772328     0.12000
C155        C  0.49669330  0.50762730  0.01609781    -0.00800
C156        C  0.51668296  0.53927869  0.03017352     0.11800
C157        C  0.54908681  0.55829764  0.01875745    -0.10800
C158        C  0.56180436  0.54645687  0.99403120    -0.10800
C159        C  0.54245698  0.51534457  0.97960381     0.11800
C160        C  0.50951701  0.49576387  0.99059868    -0.00800
C161        C  0.44473918  0.45650415  0.01332234    -0.10900
C162        C  0.45716449  0.44507841  0.98791215    -0.10900
C163        C  0.48946653  0.46418924  0.97636977     0.12000
C164        C  0.50253684  0.45250022  0.95125431    -0.09000
C165        C  0.53495844  0.47190800  0.94100055    -0.02900
C166        C  0.55509595  0.50293147  0.95471639    -0.09000
H167        H  0.56493587  0.58240508  0.02914021     0.09200
H168        H  0.58699966  0.56187743  0.98628327     0.09200
H169        H  0.41985490  0.44061934  0.02166671     0.09400
H170        H  0.44133772  0.42092495  0.97759070     0.09400
H171        H  0.46209385  0.53965864  0.08672249     0.05900
H172        H  0.54474428  0.46265310  0.92180348     0.05900
C173        C  0.45015306  0.48871095  0.44045458    -0.09000
C174        C  0.46992889  0.51960807  0.42622774    -0.02900
C175        C  0.50072208  0.54150230  0.43950047    -0.09000
C176        C  0.51272146  0.53197564  0.46787588     0.12000
C177        C  0.49290891  0.50058080  0.48274070    -0.00800
C178        C  0.46140246  0.47895686  0.46913727     0.11800
C179        C  0.44212963  0.44820795  0.48441457    -0.10800
C180        C  0.45334463  0.43883129  0.51276703    -0.10800
C181        C  0.48444335  0.45966330  0.52654010     0.11800
C182        C  0.50453894  0.49081458  0.51136157    -0.00800
C183        C  0.54396651  0.55264914  0.48150147    -0.10900
C184        C  0.55556494  0.54286051  0.50934752    -0.10900
C185        C  0.53625579  0.51213183  0.52468688     0.12000
C186        C  0.54753426  0.50202425  0.55317557    -0.09000
C187        C  0.52712539  0.47159577  0.56809061    -0.02900
C188        C  0.49599999  0.45034279  0.55529695    -0.09000
H189        H  0.41812754  0.43114931  0.47456014     0.09200
H190        H  0.43738717  0.41502376  0.52384057     0.09200
H191        H  0.55980442  0.57652580  0.47052260     0.09400
H192        H  0.57976760  0.55964272  0.51894858     0.09400
H193        H  0.46065889  0.52719228  0.40487369     0.05900
H194        H  0.53603709  0.46388527  0.58966146     0.05900
C195        C  0.49920226  0.95537578  0.44665329    -0.09000
C196        C  0.46828586  0.94587795  0.43330697    -0.02900
C197        C  0.44895276  0.95807160  0.44623477    -0.09000
C198        C  0.46081134  0.98063531  0.47359125     0.12000
C199        C  0.49241925  0.99096951  0.48716376    -0.00800
C200        C  0.51170101  0.97827960  0.47368075     0.11800
C201        C  0.54296341  0.98904714  0.48732544    -0.10800
C202        C  0.55516628  0.01186924  0.51379007    -0.10800
C203        C  0.53648758  0.02461477  0.52766271     0.11800
C204        C  0.50474289  0.01400083  0.51431041    -0.00800
C205        C  0.44205537  0.99323276  0.48758361    -0.10900
C206        C  0.45393798  0.01542730  0.51456808    -0.10900
C207        C  0.48519587  0.02621056  0.52820409     0.12000
C208        C  0.49735643  0.04853447  0.55573055    -0.09000
C209        C  0.52864827  0.05881432  0.56841375    -0.02900
C210        C  0.54841330  0.04742910  0.55482350    -0.09000
H211        H  0.55830408  0.97996014  0.47750433     0.09200
H212        H  0.57937218  0.01936873  0.52347023     0.09200
H213        H  0.41795024  0.98589295  0.47782923     0.09400
H214        H  0.43833612  0.02410547  0.52468609     0.09400
H215        H  0.45889986  0.92830139  0.41264705     0.05900
H216        H  0.53789426  0.07620753  0.58923129     0.05900
C217        C  0.69659720  0.57011077  0.86691410     0.14500
C218        C  0.66789034  0.54062799  0.87407327     0.01500
C219        C  0.66078280  0.51262273  0.85522614     0.16500
C220        C  0.68203338  0.51382120  0.82978026     0.25900
C221        C  0.71120316  0.54319574  0.82258527    -0.40500
C222        C  0.71816578  0.57142923  0.84145785     0.32900
C223        C  0.64430776  0.53850033  0.90028617     0.01600
F224        F  0.63269071  0.48405047  0.86105881    -0.12800
F225        F  0.74597134  0.60024108  0.83567018    -0.13300
C226        C  0.62415911  0.55186031  0.89376654     0.16500
C227        C  0.59654690  0.54299480  0.91409177     0.25900
C228        C  0.58893353  0.52086512  0.94126371    -0.40400
C229        C  0.61058950  0.50965182  0.94941943     0.32900
C230        C  0.63809277  0.51842391  0.92908954     0.14600
F231        F  0.62945873  0.57093532  0.86581379    -0.12800
F232        F  0.60343194  0.48784659  0.97522259    -0.13300
F233        F  0.57550164  0.55338327  0.90521252    -0.15600
F234        F  0.65733916  0.50537177  0.93594640    -0.14100
F235        F  0.70390269  0.59748394  0.88486725    -0.14100
F236        F  0.67353435  0.48614526  0.81181516    -0.15500
C237        C  0.66736856  0.51338705  0.63513418     0.14500
C238        C  0.66451419  0.54111556  0.62881239     0.01500
C239        C  0.68549934  0.57033050  0.64601892     0.16500
C240        C  0.70851031  0.57162767  0.66960302     0.25900
C241        C  0.71081779  0.54355126  0.67670470    -0.40500
C242        C  0.69017126  0.51453620  0.65870664     0.32900
C243        C  0.63789004  0.53840012  0.60628901     0.01600
F244        F  0.68349030  0.59758126  0.64019287    -0.12800
F245        F  0.69170614  0.48695278  0.66401655    -0.13300
C246        C  0.61291227  0.54286530  0.61999066     0.16500
C247        C  0.58457028  0.53413193  0.60106192     0.25900
C248        C  0.58077972  0.52100326  0.56805319    -0.40400
C249        C  0.60663650  0.51863829  0.55343812     0.32900
C250        C  0.63501645  0.52734462  0.57236758     0.14600
F251        F  0.61466624  0.55292582  0.65280770    -0.12800
F252        F  0.60317172  0.50516844  0.52199264    -0.13300
F253        F  0.55958006  0.53584448  0.61601346    -0.15600
F254        F  0.65892351  0.52319972  0.55830554    -0.14100
F255        F  0.64705741  0.48462142  0.61942470    -0.14100
F256        F  0.72779243  0.60016718  0.68616965    -0.15500
C257        C  0.38648507  0.45892483  0.12142729     0.14500
C258        C  0.35874688  0.45554634  0.10444033     0.01500
C259        C  0.36081630  0.46230910  0.06912657     0.16500
C260        C  0.39069154  0.47451946  0.05180106     0.25900
C261        C  0.41879812  0.47973838  0.06943850    -0.40500
C262        C  0.41617376  0.47092774  0.10410412     0.32900
C263        C  0.32974183  0.44984758  0.12481003     0.01600
F264        F  0.33425565  0.45850046  0.05181840    -0.12800
F265        F  0.44303468  0.47599200  0.12174951    -0.13300
C266        C  0.32065588  0.47396455  0.12549419     0.16500
C267        C  0.29774173  0.47225307  0.14924345     0.25900
C268        C  0.28324414  0.44631514  0.17287980    -0.40400
C269        C  0.29062094  0.42096090  0.17064090     0.32900
C270        C  0.31378929  0.42281288  0.14692660     0.14600
F271        F  0.33548507  0.50036862  0.10452801    -0.12800
F272        F  0.27684428  0.39530630  0.19264794    -0.13300
F273        F  0.29016941  0.49641562  0.14947241    -0.15600
F274        F  0.32144389  0.39871609  0.14628711    -0.14100
F275        F  0.38555810  0.45312935  0.15552952    -0.14100
F276        F  0.39267955  0.48322404  0.01841873    -0.15500
C277        C  0.31233973  0.41915562  0.34730751     0.14500
C278        C  0.33219188  0.44727105  0.36665853     0.01500
C279        C  0.32819607  0.47464722  0.36314064     0.16500
C280        C  0.30551625  0.47435675  0.34000807     0.25900
C281        C  0.28618154  0.44658917  0.31976553    -0.40500
C282        C  0.28941944  0.41871508  0.32419903     0.32900
C283        C  0.35914656  0.44964474  0.38823674     0.01600
F284        F  0.34735760  0.50234301  0.38111427    -0.12800
F285        F  0.27135566  0.39142634  0.30525222    -0.13300
C286        C  0.38537483  0.44837887  0.37291571     0.16500
C287        C  0.41421042  0.45803483  0.39123404     0.25900
C288        C  0.41719420  0.46890334  0.42517827    -0.40400
C289        C  0.39003103  0.46746820  0.44139985     0.32900
C290        C  0.36118602  0.45788927  0.42306407     0.14600
F291        F  0.38419254  0.44067434  0.33932126    -0.12800
F292        F  0.39244735  0.47808079  0.47407494    -0.13300
F293        F  0.44020423  0.45931473  0.37503556    -0.15600
F294        F  0.33594663  0.45863302  0.43867254    -0.14100
F295        F  0.31550513  0.39227689  0.35044804    -0.14100
F296        F  0.30272786  0.50149281  0.33733371    -0.15500
C297        C  0.10599214  0.47258536  0.42178580     0.14500
C298        C  0.09938654  0.46313501  0.38725870     0.01500
C299        C  0.07088552  0.45991487  0.37223917     0.16500
C300        C  0.05045131  0.46780921  0.39074557     0.25900
C301        C  0.05805237  0.47899399  0.42460235    -0.40500
C302        C  0.08546509  0.48044262  0.44030678     0.32900
C303        C  0.12330175  0.45918448  0.36601130     0.01600
F304        F  0.06408995  0.45140893  0.33884426    -0.12800
F305        F  0.09361455  0.49173037  0.47278593    -0.13300
C306        C  0.11395225  0.42979293  0.34867687     0.16500
C307        C  0.13562977  0.42708476  0.32628641     0.25900
C308        C  0.16723871  0.45386694  0.32056263    -0.40400
C309        C  0.17680437  0.48304893  0.33879660     0.32900
C310        C  0.15508181  0.48563457  0.36118700     0.14600
F311        F  0.08356312  0.40371559  0.35317468    -0.12800
F312        F  0.20712967  0.50937504  0.33479160    -0.13300
F313        F  0.12511616  0.39850497  0.30934626    -0.15600
F314        F  0.16471601  0.51454133  0.37715256    -0.14100
F315        F  0.13303072  0.47542751  0.43713972    -0.14100
F316        F  0.02434870  0.46665747  0.37491755    -0.15500
C317        C  0.88809003  0.56842435  0.65308865     0.14500
C318        C  0.87898043  0.54025553  0.63353339     0.01500
C319        C  0.84707070  0.51363446  0.63651402     0.16500
C320        C  0.82466564  0.51501407  0.65873445     0.25900
C321        C  0.83369564  0.54312603  0.67860867    -0.40500
C322        C  0.86567255  0.56991707  0.67536430     0.32900
C323        C  0.90298358  0.53741243  0.61154808     0.01600
F324        F  0.83791894  0.48570166  0.61874970    -0.12800
F325        F  0.87573213  0.59713017  0.69468716    -0.13300
C326        C  0.93042117  0.53808785  0.62626576     0.16500
C327        C  0.94979280  0.52945865  0.60688874     0.25900
C328        C  0.94205982  0.52001568  0.57252770    -0.40400
C329        C  0.91598024  0.52149155  0.55717854     0.32900
C330        C  0.89664178  0.53024437  0.57653416     0.14600
F331        F  0.93688421  0.54447470  0.66009170    -0.12800
F332        F  0.90767684  0.51193917  0.52423364    -0.13300
F333        F  0.97469413  0.52789974  0.62231563    -0.15600
F334        F  0.87063023  0.53003696  0.56159790    -0.14100
F335        F  0.91883233  0.59439965  0.65083103    -0.14100
F336        F  0.79415471  0.48862007  0.66087534    -0.15500
C337        C  0.10965584  0.47117574  0.07153046     0.14500
C338        C  0.10059855  0.46032165  0.10535082     0.01500
C339        C  0.07168105  0.45734289  0.11873111     0.16500
C340        C  0.05346782  0.46755198  0.09947896     0.25900
C341        C  0.06376668  0.48047283  0.06651950    -0.40500
C342        C  0.09126381  0.48110531  0.05217724     0.32900
C343        C  0.12368298  0.45713219  0.12830662     0.01600
F344        F  0.06266625  0.44719854  0.15144899    -0.12800
F345        F  0.10172435  0.49382053  0.02049031    -0.13300
C346        C  0.15244679  0.48532474  0.13827382     0.16500
C347        C  0.17353539  0.48344120  0.16195899     0.25900
C348        C  0.16635205  0.45310217  0.17625128    -0.40400
C349        C  0.13763748  0.42469045  0.16555692     0.32900
C350        C  0.11644194  0.42679492  0.14195368     0.14600
F351        F  0.15960180  0.51501085  0.12580103    -0.12800
F352        F  0.12963224  0.39486886  0.17827189    -0.13300
F353        F  0.20079778  0.51158122  0.17106492    -0.15600
F354        F  0.08873997  0.39923992  0.13251391    -0.14100
F355        F  0.13743380  0.47405906  0.05809836    -0.14100
F356        F  0.02716936  0.46715799  0.11388239    -0.15500
C357        C  0.89369346  0.52514348  0.92174344     0.14500
C358        C  0.90368935  0.54011240  0.88949613     0.01500
C359        C  0.93522008  0.54925357  0.87767015     0.16500
C360        C  0.95519028  0.54083212  0.89641032     0.25900
C361        C  0.94396164  0.52345299  0.92722569    -0.40500
C362        C  0.91366279  0.51678996  0.94041663     0.32900
C363        C  0.87967439  0.54181667  0.86642781     0.01600
F364        F  0.94552173  0.56374199  0.84664945    -0.12800
F365        F  0.90230480  0.49972297  0.97001244    -0.13300
C366        C  0.88501847  0.57167228  0.85308348     0.16500
C367        C  0.86251808  0.57252265  0.83032848     0.25900
C368        C  0.83417494  0.54338405  0.82035837    -0.40400
C369        C  0.82902924  0.51351525  0.83403738     0.32900
C370        C  0.85153154  0.51281642  0.85665575     0.14600
F371        F  0.91202201  0.60004373  0.86216588    -0.12800
F372        F  0.80239225  0.48468047  0.82533864    -0.13300
F373        F  0.86889624  0.60190390  0.81772714    -0.15600
F374        F  0.84627792  0.48349254  0.86831453    -0.14100
F375        F  0.86367658  0.51675071  0.93409501    -0.14100
F376        F  0.98435862  0.54726721  0.88322112    -0.15500
C377        C  0.35994503  0.90147352  0.42626484     0.14500
C378        C  0.35849534  0.90965050  0.39192355     0.01500
C379        C  0.38524280  0.93774620  0.37798900     0.16500
C380        C  0.41399797  0.95547102  0.39700823     0.25900
C381        C  0.41632129  0.94557968  0.43029577    -0.40500
C382        C  0.38867422  0.91927090  0.44528474     0.32900
C383        C  0.33200454  0.88586242  0.36922051     0.01600
F384        F  0.38460685  0.94627561  0.34496559    -0.12800
F385        F  0.39040118  0.90919395  0.47734062    -0.13300
C386        C  0.31127637  0.89392658  0.35117773     0.16500
C387        C  0.28781336  0.87143779  0.32830908     0.25900
C388        C  0.28496488  0.84057120  0.32277931    -0.40400
C389        C  0.30578844  0.83275346  0.34124870     0.32900
C390        C  0.32887984  0.85505779  0.36405719     0.14600
F391        F  0.31390959  0.92363304  0.35554126    -0.12800
F392        F  0.30421440  0.80349675  0.33711225    -0.13300
F393        F  0.26870363  0.88036074  0.31084644    -0.15600
F394        F  0.34920691  0.84693705  0.38030368    -0.14100
F395        F  0.33423239  0.87483549  0.44056388    -0.14100
F396        F  0.44047791  0.98083085  0.38206731    -0.15500
C397        C  0.15448504  0.66781983  0.14009828     0.14500
C398        C  0.12722595  0.66844652  0.12686572     0.01500
C399        C  0.12073360  0.69286066  0.13801644     0.16500
C400        C  0.14097099  0.71604147  0.16236009     0.25900
C401        C  0.16802863  0.71505248  0.17632015    -0.40500
C402        C  0.17463361  0.69073559  0.16440297     0.32900
C403        C  0.10497234  0.64233301  0.10289859     0.01600
F404        F  0.09477063  0.69425843  0.12527316    -0.12800
F405        F  0.20040912  0.68860304  0.17649365    -0.13300
C406        C  0.07311987  0.61917415  0.11320483     0.16500
C407        C  0.05443308  0.59085157  0.09380994     0.25900
C408        C  0.06720278  0.58539506  0.06373415    -0.40400
C409        C  0.09812444  0.60955718  0.05221782     0.32900
C410        C  0.11684431  0.63784360  0.07160080     0.14600
F411        F  0.06117802  0.62266618  0.14347171    -0.12800
F412        F  0.11112417  0.60458049  0.02348509    -0.13300
F413        F  0.02487715  0.56754293  0.10570917    -0.15600
F414        F  0.14732291  0.66005240  0.06079846    -0.14100
F415        F  0.16104212  0.64416012  0.13026307    -0.14100
F416        F  0.13375685  0.73916796  0.17241325    -0.15500
C417        C  0.14598649  0.66533028  0.35616280     0.14500
C418        C  0.11655944  0.66409284  0.36452327     0.01500
C419        C  0.11009132  0.68774586  0.35083721     0.16500
C420        C  0.13279482  0.71233743  0.32908845     0.25900
C421        C  0.16233471  0.71348288  0.32030312    -0.40500
C422        C  0.16858801  0.68961992  0.33443192     0.32900
C423        C  0.09263186  0.63729761  0.38678422     0.01600
F424        F  0.08177988  0.68702908  0.35858943    -0.12800
F425        F  0.19647694  0.68932430  0.32704317    -0.13300
C426        C  0.10094840  0.63465297  0.42069217     0.16500
C427        C  0.08164336  0.60620024  0.43967668     0.25900
C428        C  0.05383956  0.57987869  0.42497522    -0.40400
C429        C  0.04431565  0.58335591  0.39188792     0.32900
C430        C  0.06348030  0.61194697  0.37297255     0.14600
F431        F  0.12891503  0.65886856  0.43462252    -0.12800
F432        F  0.01780878  0.55802986  0.37700615    -0.13300
F433        F  0.09163190  0.60318189  0.47132643    -0.15600
F434        F  0.05505409  0.61374124  0.34019333    -0.14100
F435        F  0.15248795  0.64228738  0.36840445    -0.14100
F436        F  0.12549266  0.73460916  0.31627575    -0.15500
C437        C  0.63720477  0.10603541  0.57390798     0.14500
C438        C  0.63938888  0.09775560  0.60802114     0.01500
C439        C  0.61312219  0.06940641  0.62217642     0.16500
C440        C  0.58429599  0.05113369  0.60347937     0.25900
C441        C  0.58133595  0.06072818  0.57026869    -0.40500
C442        C  0.60835568  0.08768020  0.55519672     0.32900
C443        C  0.66661294  0.12101864  0.63032844     0.01600
F444        F  0.61430546  0.06103462  0.65514131    -0.12800
F445        F  0.60586170  0.09772533  0.52337539    -0.13300
C446        C  0.67080081  0.15216082  0.63633160     0.16500
C447        C  0.69417505  0.17347208  0.65961270     0.25900
C448        C  0.71409532  0.16420386  0.67768286    -0.40400
C449        C  0.71039616  0.13316899  0.67100311     0.32900
C450        C  0.68677276  0.11176914  0.64766001     0.14600
F451        F  0.65118614  0.16151343  0.62061558    -0.12800
F452        F  0.72879848  0.12297866  0.68784265    -0.13300
F453        F  0.69692176  0.20315277  0.66463473    -0.15600
F454        F  0.68332025  0.08184508  0.64223707    -0.14100
F455        F  0.66236660  0.13303409  0.55944681    -0.14100
F456        F  0.55830455  0.02547641  0.61870211    -0.15500
C457        C  0.89159047  0.31457079  0.65167175     0.14500
C458        C  0.88305798  0.33507152  0.63385725     0.01500
C459        C  0.85202296  0.33136729  0.63921721     0.16500
C460        C  0.82986966  0.30767508  0.66174220     0.25900
C461        C  0.83820151  0.28703017  0.67981016    -0.40500
C462        C  0.86938045  0.29071550  0.67437380     0.32900
C463        C  0.90656010  0.36147892  0.61080461     0.01600
F464        F  0.84345224  0.35154043  0.62335629    -0.12800
F465        F  0.87884015  0.27196183  0.69173046    -0.13300
C466        C  0.89785153  0.36314212  0.57674169     0.16500
C467        C  0.91655807  0.39127582  0.55706909     0.25900
C468        C  0.94440040  0.41811049  0.57102975    -0.40400
C469        C  0.95445475  0.41554532  0.60417047     0.32900
C470        C  0.93575687  0.38741573  0.62388832     0.14600
F471        F  0.87005337  0.33825820  0.56327309    -0.12800
F472        F  0.98095965  0.44141173  0.61838780    -0.13300
F473        F  0.90589961  0.39347668  0.52548713    -0.15600
F474        F  0.94464530  0.38674238  0.65675345    -0.14100
F475        F  0.92147092  0.31770104  0.64713527    -0.14100
F476        F  0.80021877  0.30520066  0.66588517    -0.15500
C477        C  0.85065113  0.32871374  0.86452190     0.14500
C478        C  0.88311081  0.33541336  0.86626551     0.01500
C479        C  0.89251907  0.31691906  0.84608698     0.16500
C480        C  0.86997187  0.29246703  0.82424084     0.25900
C481        C  0.83758226  0.28621084  0.82194873    -0.40500
C482        C  0.82816546  0.30444355  0.84269269     0.32900
C483        C  0.90727606  0.36328160  0.88733879     0.01600
F484        F  0.92370379  0.32285820  0.84718882    -0.12800
F485        F  0.79717195  0.29908292  0.84166552    -0.13300
C486        C  0.90184042  0.36484538  0.92250583     0.16500
C487        C  0.92105397  0.39370318  0.94093249     0.25900
C488        C  0.94611792  0.42137373  0.92452770    -0.40400
C489        C  0.95299406  0.41905544  0.89000609     0.32900
C490        C  0.93380784  0.39026733  0.87157457     0.14600
F491        F  0.87683224  0.33891436  0.93855747    -0.12800
F492        F  0.97689305  0.44556285  0.87353341    -0.13300
F493        F  0.91361690  0.39543749  0.97409219    -0.15600
F494        F  0.93952151  0.38970185  0.83763939    -0.14100
F495        F  0.84100977  0.34672347  0.88295267    -0.14100
F496        F  0.88029966  0.27597735  0.80423273    -0.15500
C497        C  0.45772058  0.07123787  0.62579116     0.14500
C498        C  0.45592762  0.09727692  0.61063923     0.01500
C499        C  0.46346836  0.10401899  0.57568950     0.16500
C500        C  0.47492801  0.08659828  0.55690641     0.25900
C501        C  0.47855445  0.06191605  0.57270704    -0.40500
C502        C  0.46893394  0.05370862  0.60694208     0.32900
C503        C  0.45126061  0.12027709  0.63243724     0.01600
F504        F  0.46142389  0.12869567  0.56030854    -0.12800
F505        F  0.47245744  0.03004695  0.62269519    -0.13300
C506        C  0.47646443  0.15294100  0.63467211     0.16500
C507        C  0.47446665  0.17424934  0.65785489     0.25900
C508        C  0.44730592  0.16335137  0.67973911    -0.40400
C509        C  0.42138630  0.13094051  0.67658579     0.32900
C510        C  0.42344571  0.10953413  0.65320176     0.14600
F511        F  0.50393727  0.16389166  0.61551660    -0.12800
F512        F  0.39475154  0.11952836  0.69711365    -0.13300
F513        F  0.49949382  0.20560270  0.65909067    -0.15600
F514        F  0.39859626  0.07815374  0.65127587    -0.14100
F515        F  0.45121022  0.06452770  0.65957799    -0.14100
F516        F  0.48458699  0.09528246  0.52402125    -0.15500
C517        C  0.48886401  0.33954431  0.85604621     0.14500
C518        C  0.46097351  0.33910679  0.86886137     0.01500
C519        C  0.43003410  0.31468374  0.85784127     0.16500
C520        C  0.42702036  0.29066398  0.83467769     0.25900
C521        C  0.45504568  0.29086072  0.82188659    -0.40500
C522        C  0.48604707  0.31583509  0.83290830     0.32900
C523        C  0.46488005  0.36463877  0.89344612     0.01600
F524        F  0.40273512  0.31390710  0.86982190    -0.12800
F525        F  0.51396858  0.31771341  0.82124647    -0.13300
C526        C  0.45728945  0.38872877  0.88379423     0.16500
C527        C  0.46692773  0.41629737  0.90442606     0.25900
C528        C  0.48408557  0.41996408  0.93495706    -0.40400
C529        C  0.48980426  0.39490690  0.94560564     0.32900
C530        C  0.48021832  0.36741562  0.92504823     0.14600
F531        F  0.44300348  0.38686593  0.85313220    -0.12800
F532        F  0.50689113  0.39830523  0.97468964    -0.13300
F533        F  0.46189450  0.44064026  0.89332789    -0.15600
F534        F  0.48762571  0.34435844  0.93498309    -0.14100
F535        F  0.51910157  0.36348762  0.86554562    -0.14100
F536        F  0.39666279  0.26739857  0.82476666    -0.15500
C537        C  0.42510648  0.31301997  0.64944838     0.14500
C538        C  0.45449163  0.33369044  0.63245827     0.01500
C539        C  0.48168932  0.32987922  0.63798687     0.16500
C540        C  0.47988559  0.30627376  0.66074489     0.25900
C541        C  0.45074010  0.28595191  0.67871435    -0.40500
C542        C  0.42312088  0.28919286  0.67225296     0.32900
C543        C  0.45798358  0.36080379  0.61062661     0.01600
F544        F  0.51053233  0.34999906  0.62225784    -0.12800
F545        F  0.39446062  0.27011129  0.68874515    -0.13300
C546        C  0.45797241  0.38779652  0.62555500     0.16500
C547        C  0.46781352  0.41628891  0.60651475     0.25900
C548        C  0.47759450  0.41807454  0.57227742    -0.40400
C549        C  0.47560805  0.39037338  0.55675803     0.32900
C550        C  0.46585319  0.36189754  0.57583031     0.14600
F551        F  0.45102513  0.38748458  0.65928093    -0.12800
F552        F  0.48556568  0.39179723  0.52394174    -0.13300
F553        F  0.47001113  0.44296229  0.62209418    -0.15600
F554        F  0.46589840  0.33600306  0.56094384    -0.14100
F555        F  0.39847264  0.31621973  0.64423979    -0.14100
F556        F  0.50696752  0.30372379  0.66539363    -0.15500
C557        C  0.51313368  0.84698807  0.36688974     0.14500
C558        C  0.54051073  0.87769279  0.37343509     0.01500
C559        C  0.57015303  0.88627508  0.35700864     0.16500
C560        C  0.57213226  0.86478928  0.33365683     0.25900
C561        C  0.54429013  0.83439077  0.32602320    -0.40500
C562        C  0.51493451  0.82559438  0.34355403     0.32900
C563        C  0.53677602  0.90148120  0.39491625     0.01600
F564        F  0.59705188  0.91571802  0.36320613    -0.12800
F565        F  0.48758693  0.79636820  0.33787495    -0.13300
C566        C  0.52644487  0.89410298  0.42914373     0.16500
C567        C  0.51661401  0.91333015  0.44717615     0.25900
C568        C  0.51701122  0.94016405  0.43121403    -0.40400
C569        C  0.52914850  0.94864513  0.39775582     0.32900
C570        C  0.53907335  0.92954165  0.37977474     0.14600
F571        F  0.52429300  0.86729758  0.44444021    -0.12800
F572        F  0.52930938  0.97422762  0.38176154    -0.13300
F573        F  0.50453107  0.90444183  0.47932535    -0.15600
F574        F  0.54840973  0.93692385  0.34662547    -0.14100
F575        F  0.48405012  0.83825887  0.38200379    -0.14100
F576        F  0.60101266  0.87433193  0.31770734    -0.15500
C577        C  0.54425570  0.61682619  0.12192314     0.14500
C578        C  0.53873903  0.64121947  0.10832815     0.01500
C579        C  0.52680107  0.63775786  0.07472440     0.16500
C580        C  0.51831730  0.60934768  0.05603390     0.25900
C581        C  0.52161614  0.58400793  0.07063469    -0.40500
C582        C  0.53563058  0.58837615  0.10324491     0.32900
C583        C  0.54151688  0.66789531  0.13069352     0.01600
F584        F  0.52175598  0.66115384  0.06072154    -0.12800
F585        F  0.53866627  0.56401414  0.11796761    -0.13300
C586        C  0.57105019  0.68947816  0.14699695     0.16500
C587        C  0.57247736  0.71232707  0.17080294     0.25900
C588        C  0.54424662  0.71395281  0.17892223    -0.40400
C589        C  0.51492072  0.69287494  0.16160566     0.32900
C590        C  0.51362493  0.67016311  0.13787321     0.14600
F591        F  0.59849245  0.68817879  0.14009896    -0.12800
F592        F  0.48716232  0.69380411  0.16782004    -0.13300
F593        F  0.60133781  0.73213090  0.18657000    -0.15600
F594        F  0.48460471  0.64935177  0.12290163    -0.14100
F595        F  0.55542388  0.61931420  0.15438978    -0.14100
F596        F  0.50455783  0.60544940  0.02466716    -0.15500
C597        C  0.53339645  0.60563898  0.37015784     0.14500
C598        C  0.53447467  0.63242448  0.38699055     0.01500
C599        C  0.52896662  0.63052384  0.42250827     0.16500
C600        C  0.52072553  0.60168949  0.44047389     0.25900
C601        C  0.51803706  0.57437502  0.42323310    -0.40500
C602        C  0.52533230  0.57695598  0.38811694     0.32900
C603        C  0.53863087  0.66100032  0.36685096     0.01600
F604        F  0.53034356  0.65618255  0.43952712    -0.12800
F605        F  0.52245185  0.55078483  0.37076462    -0.13300
C606        C  0.51371145  0.66897856  0.36633493     0.16500
C607        C  0.51594746  0.69371336  0.34477255     0.25900
C608        C  0.54321204  0.71108178  0.32320552    -0.40400
C609        C  0.56863943  0.70375363  0.32461080     0.32900
C610        C  0.56628159  0.67889999  0.34611145     0.14600
F611        F  0.48644620  0.65180766  0.38564731    -0.12800
F612        F  0.59516908  0.71956943  0.30401811    -0.13300
F613        F  0.49121013  0.70044191  0.34483664    -0.15600
F614        F  0.59082293  0.67189668  0.34626510    -0.14100
F615        F  0.53784372  0.60638525  0.33580655    -0.14100
F616        F  0.51309549  0.59963974  0.47417938    -0.15500
C617        C  0.67965768  0.10971955  0.84725622     0.14500
C618        C  0.66447439  0.12176524  0.86908203     0.01500
C619        C  0.67454407  0.15520991  0.86800079     0.16500
C620        C  0.69874969  0.17608782  0.84514874     0.25900
C621        C  0.71344189  0.16404296  0.82260401    -0.40500
C622        C  0.70403345  0.13068945  0.82429065     0.32900
C623        C  0.63659433  0.09954280  0.89133288     0.01600
F624        F  0.65988893  0.16750884  0.88812458    -0.12800
F625        F  0.71731402  0.11805183  0.80270530    -0.13300
C626        C  0.63708245  0.10583894  0.92658505     0.16500
C627        C  0.60876527  0.08857816  0.94635805     0.25900
C628        C  0.57965767  0.06456485  0.93126214    -0.40400
C629        C  0.57963086  0.05693087  0.89656013     0.32900
C630        C  0.60784361  0.07423751  0.87673881     0.14600
F631        F  0.66463041  0.12975356  0.94149557    -0.12800
F632        F  0.55161363  0.03402183  0.88143195    -0.13300
F633        F  0.60915020  0.09676746  0.97967469    -0.15600
F634        F  0.60633316  0.06792373  0.84273458    -0.14100
F635        F  0.67054777  0.07755166  0.84787561    -0.14100
F636        F  0.70763910  0.20820917  0.84495724    -0.15500
C637        C  0.47949971  0.15491508  0.87058631     0.14500
C638        C  0.45193475  0.12431315  0.87714212     0.01500
C639        C  0.42294749  0.11506857  0.85906925     0.16500
C640        C  0.42172692  0.13592474  0.83431530     0.25900
C641        C  0.44968338  0.16632392  0.82697662    -0.40500
C642        C  0.47845876  0.17568363  0.84581994     0.32900
C643        C  0.45513809  0.10105533  0.89997698     0.01600
F644        F  0.39601731  0.08555357  0.86496607    -0.12800
F645        F  0.50588813  0.20486773  0.84014110    -0.13300
C646        C  0.46404559  0.10890026  0.93447526     0.16500
C647        C  0.47494189  0.09109422  0.95359928     0.25900
C648        C  0.47690440  0.06522969  0.93839708    -0.40400
C649        C  0.46531952  0.05571513  0.90490542     0.32900
C650        C  0.45451857  0.07347729  0.88582195     0.14600
F651        F  0.46413505  0.13505867  0.94885934    -0.12800
F652        F  0.46712838  0.03084946  0.88975949    -0.13300
F653        F  0.48597602  0.10066881  0.98594340    -0.15600
F654        F  0.44640226  0.06561178  0.85249180    -0.14100
F655        F  0.50804413  0.16409389  0.88714030    -0.14100
F656        F  0.39354059  0.12574049  0.81668928    -0.15500
C657        C  0.52738857  0.89245819  0.07328433     0.14500
C658        C  0.54158474  0.90194474  0.10596793     0.01500
C659        C  0.54937652  0.93294173  0.11844053     0.16500
C660        C  0.54066669  0.95278802  0.09991365     0.25900
C661        C  0.52398208  0.94199975  0.06872721    -0.40500
C662        C  0.51843162  0.91224750  0.05493497     0.32900
C663        C  0.54403257  0.87808635  0.12893855     0.01600
F664        F  0.56267419  0.94275378  0.14998830    -0.12800
F665        F  0.50195235  0.90119155  0.02501936    -0.13300
C666        C  0.57344969  0.88586543  0.14547978     0.16500
C667        C  0.57441481  0.86469288  0.17007530     0.25900
C668        C  0.54587334  0.83519441  0.17868275    -0.40400
C669        C  0.51676114  0.82699098  0.16097870     0.32900
C670        C  0.51585677  0.84821155  0.13664254     0.14600
F671        F  0.60124675  0.91418597  0.13803558    -0.12800
F672        F  0.48880328  0.79846066  0.16732419    -0.13300
F673        F  0.60316822  0.87359937  0.18600037    -0.15600
F674        F  0.48687802  0.84008770  0.12164042    -0.14100
F675        F  0.52044104  0.86313645  0.06005882    -0.14100
F676        F  0.54591221  0.98131101  0.11381122    -0.15500
C677        C  0.39166756  0.93187434  0.13007951     0.14500
C678        C  0.36406400  0.90720584  0.11334902     0.01500
C679        C  0.36535789  0.90266037  0.07802607     0.16500
C680        C  0.39446021  0.92151199  0.05996455     0.25900
C681        C  0.42257409  0.94497051  0.07711005    -0.38700
C682        C  0.42077451  0.95058512  0.11208554     0.32900
C683        C  0.33606593  0.88312324  0.13377740     0.01600
F684        F  0.33898649  0.87868105  0.06154498    -0.12800
F685        F  0.44784158  0.97275977  0.12918768    -0.13300
C686        C  0.31415983  0.89116371  0.14896310     0.16500
C687        C  0.28979981  0.86907687  0.17120381     0.25900
C688        C  0.28738748  0.83875979  0.17894239    -0.40400
C689        C  0.30892830  0.83058299  0.16257886     0.32900
C690        C  0.33293673  0.85254808  0.14029586     0.14600
F691        F  0.31680211  0.92064207  0.14271355    -0.12800
F692        F  0.30721087  0.80144241  0.16839825    -0.13300
F693        F  0.26946033  0.87793497  0.18602159    -0.15600
F694        F  0.35410979  0.84446853  0.12603591    -0.14100
F695        F  0.39111363  0.93604895  0.16436000    -0.14100
F696        F  0.39591781  0.91525312  0.02634795    -0.15500
loop_ 
_geom_bond_atom_site_label_1 
_geom_bond_atom_site_label_2 
_geom_bond_distance 
_geom_bond_site_symmetry_2 
_ccdc_geom_bond_type 
C1            C2   1.396       .  A
C1            C6   1.413       .  A
C1          C681   1.480       .  S
C2            C3   1.396       .  A
C2           H21   1.084       .  S
C3            C4   1.415       .  A
C3          C661   1.482       .  S
C4            C5   1.423       .  A
C4           C11   1.405       .  A
C5            C6   1.421       .  A
C5           C10   1.420   1_564  A
C6            C7   1.406       .  A
C7            C8   1.394   1_564  A
C7           H17   1.084       .  S
C8            C9   1.405       .  A
C8           H18   1.081       .  S
C9           C10   1.423       .  A
C9           C16   1.413       .  A
C10          C13   1.422       .  A
C11          C12   1.396   1_564  A
C11          H19   1.081       .  S
C12          C13   1.406       .  A
C12          H20   1.084       .  S
C13          C14   1.415       .  A
C14          C15   1.397       .  A
C14         C628   1.483       .  S
C15          C16   1.397       .  A
C15          H22   1.084       .  S
C16         C648   1.483       .  S
O23         Ni31   1.917       .  S
O23          C33   1.282       .  A
O24         Ni31   1.918       .  S
O24          C34   1.281       .  A
O25         Ni31   1.914       .  S
O25          C35   1.281       .  A
O26         Ni31   1.915       .  S
O26          C36   1.281       .  A
O27         Ni32   1.927       .  S
O27          C36   1.283       .  A
O28         Ni32   1.931       .  S
O28          C35   1.284       .  A
O29         Ni32   1.927       .  S
O29          C34   1.283       .  A
O30         Ni32   1.928       .  S
O30          C33   1.283       .  A
Ni31        Ni32   2.381       .  S
C33         C668   1.494       .  S
C34         C608   1.489       .  S
C35         C561   1.493       .  S
C36         C588   1.492       .  S
O37         Ni45   1.922       .  S
O37          C47   1.282       .  A
O38         Ni45   1.923       .  S
O38          C48   1.282       .  A
O39         Ni45   1.931       .  S
O39          C49   1.284       .  A
O40         Ni45   1.931       .  S
O40          C50   1.284       .  A
O41         Ni46   1.906       .  S
O41          C50   1.279       .  A
O42         Ni46   1.906       .  S
O42          C49   1.279       .  A
O43         Ni46   1.914       .  S
O43          C48   1.281       .  A
O44         Ni46   1.911       .  S
O44          C47   1.281       .  A
Ni45        Ni46   2.382       .  S
C47         C541   1.487       .  S
C48         C641   1.488       .  S
C49         C521   1.493       .  S
C50         C508   1.485       .  S
O51         Ni59   1.912       .  S
O51          C61   1.281       .  A
O52         Ni59   1.911       .  S
O52          C62   1.280       .  A
O53         Ni59   1.915       .  S
O53          C63   1.281       .  A
O54         Ni59   1.916       .  S
O54          C64   1.282       .  A
O55         Ni60   1.931       .  S
O55          C64   1.284       .  A
O56         Ni60   1.930       .  S
O56          C63   1.284       .  A
O57         Ni60   1.932       .  S
O57          C62   1.284       .  A
O58         Ni60   1.931       .  S
O58          C61   1.284       .  A
Ni59        Ni60   2.382       .  S
C61         C461   1.492       .  S
C62         C621   1.486       .  S
C63         C481   1.489       .  S
C64         C448   1.494       .  S
O65         Ni73   1.928       .  S
O65          C75   1.283       .  A
O66         Ni73   1.933       .  S
O66          C76   1.284       .  A
O67         Ni73   1.936       .  S
O67          C77   1.285       .  A
O68         Ni73   1.933       .  S
O68          C78   1.285       .  A
O69         Ni74   1.913       .  S
O69          C78   1.281       .  A
O70         Ni74   1.914       .  S
O70          C77   1.281       .  A
O71         Ni74   1.911       .  S
O71          C76   1.280       .  A
O72         Ni74   1.907       .  S
O72          C75   1.280       .  A
Ni73        Ni74   2.380       .  S
C75         C688   1.488       .  S
C76         C421   1.496       .  S
C77         C388   1.496       .  S
C78         C401   1.497       .  S
C79          C80   1.397       .  A
C79          C84   1.412       .  A
C79         C361   1.479       .  S
C80          C81   1.397       .  A
C80          H99   1.084       .  S
C81          C82   1.417       .  A
C81         C488   1.488       .  S
C82          C83   1.425       .  A
C82          C89   1.405       .  A
C83          C84   1.421       .  A
C83          C88   1.421   1_656  A
C84          C85   1.406       .  A
C85          C86   1.396   1_656  A
C85          H95   1.083       .  S
C86          C87   1.405       .  A
C86          H96   1.083       .  S
C87          C88   1.424       .  A
C87          C94   1.416       .  A
C88          C91   1.420       .  A
C89          C90   1.396   1_656  A
C89          H97   1.083       .  S
C90          C91   1.406       .  A
C90          H98   1.083       .  S
C91          C92   1.413       .  A
C92          C93   1.397       .  A
C92         C341   1.479       .  S
C93          C94   1.396       .  A
C93         H100   1.084       .  S
C94         C408   1.485       .  S
C101        C102   1.397       .  A
C101        C106   1.416       .  A
C101        C328   1.485       .  S
C102        C103   1.396       .  A
C102        H121   1.084       .  S
C103        C104   1.417       .  A
C103        C468   1.486       .  S
C104        C105   1.424       .  A
C104        C111   1.406       .  A
C105        C106   1.423       .  A
C105        C110   1.423   1_655  A
C106        C107   1.406       .  A
C107        C108   1.396   1_655  A
C107        H117   1.085       .  S
C108        C109   1.405       .  A
C108        H118   1.081       .  S
C109        C110   1.423       .  A
C109        C116   1.416       .  A
C110        C113   1.423       .  A
C111        C112   1.397   1_655  A
C111        H119   1.081       .  S
C112        C113   1.406       .  A
C112        H120   1.085       .  S
C113        C114   1.417       .  A
C114        C115   1.397       .  A
C114        C301   1.486       .  S
C115        C116   1.396       .  A
C115        H122   1.084       .  S
C116        C428   1.485       .  S
O123       Ni131   1.924       .  S
O123        C133   1.283       .  A
O124       Ni131   1.925       .  S
O124        C134   1.283       .  A
O125       Ni131   1.929       .  S
O125        C135   1.284       .  A
O126       Ni131   1.930       .  S
O126        C136   1.283       .  A
O127       Ni132   1.919       .  S
O127        C136   1.282       .  A
O128       Ni132   1.919       .  S
O128        C135   1.282       .  A
O129       Ni132   1.917       .  S
O129        C134   1.282       .  A
O130       Ni132   1.913       .  S
O130        C133   1.281       .  A
Ni131      Ni132   2.382       .  S
C133        C348   1.491       .  S
C134        C281   1.489       .  S
C135        C308   1.495       .  S
C136        C268   1.488       .  S
O137       Ni145   1.918       .  S
O137        C147   1.282       .  A
O138       Ni145   1.917       .  S
O138        C148   1.282       .  A
O139       Ni145   1.913       .  S
O139        C149   1.281       .  A
O140       Ni145   1.912       .  S
O140        C150   1.280       .  A
O141       Ni146   1.925       .  S
O141        C150   1.283       .  A
O142       Ni146   1.927       .  S
O142        C149   1.283       .  A
O143       Ni146   1.924       .  S
O143        C148   1.283       .  A
O144       Ni146   1.928       .  S
O144        C147   1.283       .  A
Ni145      Ni146   2.381       .  S
C147        C241   1.494       .  S
C148        C368   1.493       .  S
C149        C221   1.491       .  S
C150        C321   1.487       .  S
C151        C152   1.398       .  A
C151        C156   1.415       .  A
C151        C581   1.483       .  S
C152        C153   1.399       .  A
C152        H171   1.084       .  S
C153        C154   1.416       .  A
C153        C261   1.488       .  S
C154        C155   1.424       .  A
C154        C161   1.406       .  A
C155        C156   1.422       .  A
C155        C160   1.422   1_554  A
C156        C157   1.406       .  A
C157        C158   1.397   1_554  A
C157        H167   1.083       .  S
C158        C159   1.405       .  A
C158        H168   1.083       .  S
C159        C160   1.423       .  A
C159        C166   1.416       .  A
C160        C163   1.422       .  A
C161        C162   1.395   1_554  A
C161        H169   1.082       .  S
C162        C163   1.405       .  A
C162        H170   1.083       .  S
C163        C164   1.413       .  A
C164        C165   1.395       .  A
C164        C528   1.481       .  S
C165        C166   1.396       .  A
C165        H172   1.084       .  S
C166        C228   1.483       .  S
C173        C174   1.396       .  A
C173        C178   1.414       .  A
C173        C288   1.485       .  S
C174        C175   1.398       .  A
C174        H193   1.084       .  S
C175        C176   1.418       .  A
C175        C601   1.488       .  S
C176        C177   1.423       .  A
C176        C183   1.407       .  A
C177        C178   1.423       .  A
C177        C182   1.422       .  A
C178        C179   1.405       .  A
C179        C180   1.393       .  A
C179        H189   1.083       .  S
C180        C181   1.405       .  A
C180        H190   1.083       .  S
C181        C182   1.422       .  A
C181        C188   1.413       .  A
C182        C185   1.423       .  A
C183        C184   1.398       .  A
C183        H191   1.083       .  S
C184        C185   1.405       .  A
C184        H192   1.083       .  S
C185        C186   1.417       .  A
C186        C187   1.396       .  A
C186        C248   1.485       .  S
C187        C188   1.396       .  A
C187        H194   1.084       .  S
C188        C548   1.481       .  S
C195        C196   1.399       .  A
C195        C200   1.415       .  A
C195        C568   1.484       .  S
C196        C197   1.398       .  A
C196        H215   1.083       .  S
C197        C198   1.415       .  A
C197        C381   1.486       .  S
C198        C199   1.423       .  A
C198        C205   1.405       .  A
C199        C200   1.421       .  A
C199        C204   1.422   1_565  A
C200        C201   1.406       .  A
C201        C202   1.396   1_565  A
C201        H211   1.083       .  S
C202        C203   1.405       .  A
C202        H212   1.084       .  S
C203        C204   1.423       .  A
C203        C210   1.416       .  A
C204        C207   1.421       .  A
C205        C206   1.394   1_565  A
C205        H213   1.082       .  S
C206        C207   1.406       .  A
C206        H214   1.084       .  S
C207        C208   1.414       .  A
C208        C209   1.398       .  A
C208        C501   1.483       .  S
C209        C210   1.397       .  A
C209        H216   1.083       .  S
C210        C441   1.485       .  S
C217        C218   1.404       .  A
C217        C222   1.405       .  A
C217        F235   1.357       .  S
C218        C219   1.403       .  A
C218        C223   1.482       .  S
C219        C220   1.396       .  A
C219        F224   1.358       .  S
C220        C221   1.412       .  A
C220        F236   1.358       .  S
C221        C222   1.414       .  A
C222        F225   1.357       .  S
C223        C226   1.406       .  A
C223        C230   1.405       .  A
C226        C227   1.402       .  A
C226        F231   1.357       .  S
C227        C228   1.405       .  A
C227        F233   1.357       .  S
C228        C229   1.406       .  A
C229        C230   1.399       .  A
C229        F232   1.358       .  S
C230        F234   1.358       .  S
C237        C238   1.405       .  A
C237        C242   1.399       .  A
C237        F255   1.358       .  S
C238        C239   1.406       .  A
C238        C243   1.489       .  S
C239        C240   1.405       .  A
C239        F244   1.358       .  S
C240        C241   1.413       .  A
C240        F256   1.358       .  S
C241        C242   1.412       .  A
C242        F245   1.358       .  S
C243        C246   1.407       .  A
C243        C250   1.408       .  A
C246        C247   1.401       .  A
C246        F251   1.358       .  S
C247        C248   1.406       .  A
C247        F253   1.358       .  S
C248        C249   1.405       .  A
C249        C250   1.403       .  A
C249        F252   1.358       .  S
C250        F254   1.358       .  S
C257        C258   1.407       .  A
C257        C262   1.399       .  A
C257        F275   1.358       .  S
C258        C259   1.410       .  A
C258        C263   1.490       .  S
C259        C260   1.405       .  A
C259        F264   1.358       .  S
C260        C261   1.406       .  A
C260        F276   1.358       .  S
C261        C262   1.405       .  A
C262        F265   1.358       .  S
C263        C266   1.406       .  A
C263        C270   1.408       .  A
C266        C267   1.399       .  A
C266        F271   1.358       .  S
C267        C268   1.409       .  A
C267        F273   1.358       .  S
C268        C269   1.409       .  A
C269        C270   1.405       .  A
C269        F272   1.358       .  S
C270        F274   1.358       .  S
C277        C278   1.405       .  A
C277        C282   1.404       .  A
C277        F295   1.358       .  S
C278        C279   1.405       .  A
C278        C283   1.486       .  S
C279        C280   1.398       .  A
C279        F284   1.358       .  S
C280        C281   1.410       .  A
C280        F296   1.358       .  S
C281        C282   1.412       .  A
C282        F285   1.358       .  S
C283        C286   1.406       .  A
C283        C290   1.408       .  A
C286        C287   1.400       .  A
C286        F291   1.358       .  S
C287        C288   1.406       .  A
C287        F293   1.358       .  S
C288        C289   1.404       .  A
C289        C290   1.401       .  A
C289        F292   1.358       .  S
C290        F294   1.358       .  S
C297        C298   1.408       .  A
C297        C302   1.403       .  A
C297        F315   1.358       .  S
C298        C299   1.407       .  A
C298        C303   1.490       .  S
C299        C300   1.400       .  A
C299        F304   1.358       .  S
C300        C301   1.405       .  A
C300        F316   1.358       .  S
C301        C302   1.405       .  A
C302        F305   1.358       .  S
C303        C306   1.405       .  A
C303        C310   1.406       .  A
C306        C307   1.403       .  A
C306        F311   1.358       .  S
C307        C308   1.412       .  A
C307        F313   1.357       .  S
C308        C309   1.412       .  A
C309        C310   1.402       .  A
C309        F312   1.358       .  S
C310        F314   1.358       .  S
C317        C318   1.405       .  A
C317        C322   1.402       .  A
C317        F335   1.358       .  S
C318        C319   1.405       .  A
C318        C323   1.484       .  S
C319        C320   1.398       .  A
C319        F324   1.358       .  S
C320        C321   1.410       .  A
C320        F336   1.358       .  S
C321        C322   1.411       .  A
C322        F325   1.358       .  S
C323        C326   1.406       .  A
C323        C330   1.407       .  A
C326        C327   1.399       .  A
C326        F331   1.358       .  S
C327        C328   1.406       .  A
C327        F333   1.358       .  S
C328        C329   1.405       .  A
C329        C330   1.401       .  A
C329        F332   1.358       .  S
C330        F334   1.358       .  S
C337        C338   1.406       .  A
C337        C342   1.399       .  A
C337        F355   1.358       .  S
C338        C339   1.405       .  A
C338        C343   1.478       .  S
C339        C340   1.399       .  A
C339        F344   1.358       .  S
C340        C341   1.405       .  A
C340        F356   1.358       .  S
C341        C342   1.404       .  A
C342        F345   1.358       .  S
C343        C346   1.402       .  A
C343        C350   1.402       .  A
C346        C347   1.396       .  A
C346        F351   1.358       .  S
C347        C348   1.413       .  A
C347        F353   1.358       .  S
C348        C349   1.414       .  A
C349        C350   1.403       .  A
C349        F352   1.357       .  S
C350        F354   1.358       .  S
C357        C358   1.407       .  A
C357        C362   1.398       .  A
C357        F375   1.358       .  S
C358        C359   1.407       .  A
C358        C363   1.484       .  S
C359        C360   1.401       .  A
C359        F364   1.358       .  S
C360        C361   1.404       .  A
C360        F376   1.358       .  S
C361        C362   1.403       .  A
C362        F365   1.358       .  S
C363        C366   1.404       .  A
C363        C370   1.404       .  A
C366        C367   1.403       .  A
C366        F371   1.358       .  S
C367        C368   1.414       .  A
C367        F373   1.357       .  S
C368        C369   1.412       .  A
C369        C370   1.397       .  A
C369        F372   1.358       .  S
C370        F374   1.358       .  S
C377        C378   1.408       .  A
C377        C382   1.402       .  A
C377        F395   1.358       .  S
C378        C379   1.407       .  A
C378        C383   1.488       .  S
C379        C380   1.402       .  A
C379        F384   1.358       .  S
C380        C381   1.406       .  A
C380        F396   1.358       .  S
C381        C382   1.404       .  A
C382        F385   1.358       .  S
C383        C386   1.407       .  A
C383        C390   1.403       .  A
C386        C387   1.408       .  A
C386        F391   1.358       .  S
C387        C388   1.414       .  A
C387        F393   1.358       .  S
C388        C389   1.412       .  A
C389        C390   1.397       .  A
C389        F392   1.358       .  S
C390        F394   1.358       .  S
C397        C398   1.404       .  A
C397        C402   1.398       .  A
C397        F415   1.358       .  S
C398        C399   1.405       .  A
C398        C403   1.488       .  S
C399        C400   1.406       .  A
C399        F404   1.357       .  S
C400        C401   1.414       .  A
C400        F416   1.357       .  S
C401        C402   1.414       .  A
C402        F405   1.358       .  S
C403        C406   1.407       .  A
C403        C410   1.407       .  A
C406        C407   1.403       .  A
C406        F411   1.358       .  S
C407        C408   1.405       .  A
C407        F413   1.357       .  S
C408        C409   1.405       .  A
C409        C410   1.402       .  A
C409        F412   1.358       .  S
C410        F414   1.358       .  S
C417        C418   1.403       .  A
C417        C422   1.398       .  A
C417        F435   1.358       .  S
C418        C419   1.404       .  A
C418        C423   1.485       .  S
C419        C420   1.406       .  A
C419        F424   1.357       .  S
C420        C421   1.414       .  A
C420        F436   1.357       .  S
C421        C422   1.414       .  A
C422        F425   1.358       .  S
C423        C426   1.406       .  A
C423        C430   1.406       .  A
C426        C427   1.401       .  A
C426        F431   1.358       .  S
C427        C428   1.404       .  A
C427        F433   1.358       .  S
C428        C429   1.407       .  A
C429        C430   1.403       .  A
C429        F432   1.358       .  S
C430        F434   1.358       .  S
C437        C438   1.408       .  A
C437        C442   1.403       .  A
C437        F455   1.358       .  S
C438        C439   1.406       .  A
C438        C443   1.488       .  S
C439        C440   1.401       .  A
C439        F444   1.358       .  S
C440        C441   1.405       .  A
C440        F456   1.358       .  S
C441        C442   1.405       .  A
C442        F445   1.358       .  S
C443        C446   1.404       .  A
C443        C450   1.406       .  A
C446        C447   1.398       .  A
C446        F451   1.358       .  S
C447        C448   1.411       .  A
C447        F453   1.358       .  S
C448        C449   1.413       .  A
C449        C450   1.406       .  A
C449        F452   1.358       .  S
C450        F454   1.358       .  S
C457        C458   1.406       .  A
C457        C462   1.406       .  A
C457        F475   1.358       .  S
C458        C459   1.405       .  A
C458        C463   1.489       .  S
C459        C460   1.397       .  A
C459        F464   1.358       .  S
C460        C461   1.411       .  A
C460        F476   1.358       .  S
C461        C462   1.412       .  A
C462        F465   1.358       .  S
C463        C466   1.408       .  A
C463        C470   1.407       .  A
C466        C467   1.401       .  A
C466        F471   1.358       .  S
C467        C468   1.404       .  A
C467        F473   1.358       .  S
C468        C469   1.407       .  A
C469        C470   1.402       .  A
C469        F472   1.358       .  S
C470        F474   1.358       .  S
C477        C478   1.406       .  A
C477        C482   1.399       .  A
C477        F495   1.358       .  S
C478        C479   1.407       .  A
C478        C483   1.489       .  S
C479        C480   1.404       .  A
C479        F484   1.358       .  S
C480        C481   1.411       .  A
C480        F496   1.358       .  S
C481        C482   1.410       .  A
C482        F485   1.358       .  S
C483        C486   1.408       .  A
C483        C490   1.407       .  A
C486        C487   1.403       .  A
C486        F491   1.358       .  S
C487        C488   1.405       .  A
C487        F493   1.357       .  S
C488        C489   1.406       .  A
C489        C490   1.401       .  A
C489        F492   1.358       .  S
C490        F494   1.358       .  S
C497        C498   1.406       .  A
C497        C502   1.398       .  A
C497        F515   1.358       .  S
C498        C499   1.408       .  A
C498        C503   1.484       .  S
C499        C500   1.401       .  A
C499        F504   1.358       .  S
C500        C501   1.404       .  A
C500        F516   1.358       .  S
C501        C502   1.405       .  A
C502        F505   1.358       .  S
C503        C506   1.404       .  A
C503        C510   1.407       .  A
C506        C507   1.395       .  A
C506        F511   1.358       .  S
C507        C508   1.409       .  A
C507        F513   1.358       .  S
C508        C509   1.409       .  A
C509        C510   1.404       .  A
C509        F512   1.358       .  S
C510        F514   1.358       .  S
C517        C518   1.402       .  A
C517        C522   1.395       .  A
C517        F535   1.359       .  S
C518        C519   1.404       .  A
C518        C523   1.482       .  S
C519        C520   1.404       .  A
C519        F524   1.357       .  S
C520        C521   1.413       .  A
C520        F536   1.357       .  S
C521        C522   1.414       .  A
C522        F525   1.358       .  S
C523        C526   1.406       .  A
C523        C530   1.406       .  A
C526        C527   1.402       .  A
C526        F531   1.358       .  S
C527        C528   1.405       .  A
C527        F533   1.358       .  S
C528        C529   1.404       .  A
C529        C530   1.398       .  A
C529        F532   1.358       .  S
C530        F534   1.358       .  S
C537        C538   1.403       .  A
C537        C542   1.402       .  A
C537        F555   1.358       .  S
C538        C539   1.403       .  A
C538        C543   1.478       .  S
C539        C540   1.395       .  A
C539        F544   1.358       .  S
C540        C541   1.411       .  A
C540        F556   1.358       .  S
C541        C542   1.413       .  A
C542        F545   1.358       .  S
C543        C546   1.405       .  A
C543        C550   1.405       .  A
C546        C547   1.398       .  A
C546        F551   1.358       .  S
C547        C548   1.406       .  A
C547        F553   1.358       .  S
C548        C549   1.404       .  A
C549        C550   1.399       .  A
C549        F552   1.358       .  S
C550        F554   1.358       .  S
C557        C558   1.403       .  A
C557        C562   1.398       .  A
C557        F575   1.358       .  S
C558        C559   1.405       .  A
C558        C563   1.485       .  S
C559        C560   1.405       .  A
C559        F564   1.358       .  S
C560        C561   1.413       .  A
C560        F576   1.357       .  S
C561        C562   1.412       .  A
C562        F565   1.358       .  S
C563        C566   1.408       .  A
C563        C570   1.406       .  A
C566        C567   1.402       .  A
C566        F571   1.358       .  S
C567        C568   1.405       .  A
C567        F573   1.358       .  S
C568        C569   1.404       .  A
C569        C570   1.399       .  A
C569        F572   1.358       .  S
C570        F574   1.358       .  S
C577        C578   1.407       .  A
C577        C582   1.401       .  A
C577        F595   1.358       .  S
C578        C579   1.408       .  A
C578        C583   1.487       .  S
C579        C580   1.401       .  A
C579        F584   1.358       .  S
C580        C581   1.404       .  A
C580        F596   1.358       .  S
C581        C582   1.404       .  A
C582        F585   1.358       .  S
C583        C586   1.405       .  A
C583        C590   1.405       .  A
C586        C587   1.403       .  A
C586        F591   1.358       .  S
C587        C588   1.412       .  A
C587        F593   1.357       .  S
C588        C589   1.412       .  A
C589        C590   1.399       .  A
C589        F592   1.358       .  S
C590        F594   1.358       .  S
C597        C598   1.407       .  A
C597        C602   1.399       .  A
C597        F615   1.358       .  S
C598        C599   1.408       .  A
C598        C603   1.489       .  S
C599        C600   1.404       .  A
C599        F604   1.358       .  S
C600        C601   1.406       .  A
C600        F616   1.358       .  S
C601        C602   1.407       .  A
C602        F605   1.358       .  S
C603        C606   1.407       .  A
C603        C610   1.406       .  A
C606        C607   1.401       .  A
C606        F611   1.358       .  S
C607        C608   1.410       .  A
C607        F613   1.358       .  S
C608        C609   1.410       .  A
C609        C610   1.402       .  A
C609        F612   1.358       .  S
C610        F614   1.358       .  S
C617        C618   1.408       .  A
C617        C622   1.405       .  A
C617        F635   1.358       .  S
C618        C619   1.405       .  A
C618        C623   1.487       .  S
C619        C620   1.397       .  A
C619        F624   1.358       .  S
C620        C621   1.409       .  A
C620        F636   1.358       .  S
C621        C622   1.409       .  A
C622        F625   1.358       .  S
C623        C626   1.409       .  A
C623        C630   1.407       .  A
C626        C627   1.401       .  A
C626        F631   1.358       .  S
C627        C628   1.404       .  A
C627        F633   1.358       .  S
C628        C629   1.405       .  A
C629        C630   1.399       .  A
C629        F632   1.358       .  S
C630        F634   1.358       .  S
C637        C638   1.404       .  A
C637        C642   1.397       .  A
C637        F655   1.358       .  S
C638        C639   1.404       .  A
C638        C643   1.481       .  S
C639        C640   1.403       .  A
C639        F644   1.358       .  S
C640        C641   1.412       .  A
C640        F656   1.358       .  S
C641        C642   1.411       .  A
C642        F645   1.358       .  S
C643        C646   1.407       .  A
C643        C650   1.404       .  A
C646        C647   1.402       .  A
C646        F651   1.358       .  S
C647        C648   1.405       .  A
C647        F653   1.358       .  S
C648        C649   1.405       .  A
C649        C650   1.397       .  A
C649        F652   1.358       .  S
C650        F654   1.358       .  S
C657        C658   1.409       .  A
C657        C662   1.402       .  A
C657        F675   1.358       .  S
C658        C659   1.408       .  A
C658        C663   1.490       .  S
C659        C660   1.400       .  A
C659        F664   1.358       .  S
C660        C661   1.403       .  A
C660        F676   1.358       .  S
C661        C662   1.404       .  A
C662        F665   1.358       .  S
C663        C666   1.407       .  A
C663        C670   1.406       .  A
C666        C667   1.405       .  A
C666        F671   1.358       .  S
C667        C668   1.413       .  A
C667        F673   1.357       .  S
C668        C669   1.412       .  A
C669        C670   1.398       .  A
C669        F672   1.358       .  S
C670        F674   1.358       .  S
C677        C678   1.404       .  A
C677        C682   1.398       .  A
C677        F695   1.358       .  S
C678        C679   1.405       .  A
C678        C683   1.476       .  S
C679        C680   1.400       .  A
C679        F684   1.358       .  S
C680        C681   1.405       .  A
C680        F696   1.358       .  S
C681        C682   1.405       .  A
C682        F685   1.358       .  S
C683        C686   1.403       .  A
C683        C690   1.401       .  A
C686        C687   1.403       .  A
C686        F691   1.358       .  S
C687        C688   1.412       .  A
C687        F693   1.357       .  S
C688        C689   1.412       .  A
C689        C690   1.395       .  A
C689        F692   1.358       .  S
C690        F694   1.358       .  S
