geometry optimzed in LAMMPS
_audit_creation_date              2020-12-01 
_audit_creation_method            'lammps2cif' 
_symmetry_space_group_name_H-M    'P1' 
_symmetry_Int_Tables_number       1 
_symmetry_cell_setting            triclinic 
loop_ 
_symmetry_equiv_pos_as_xyz 
  x,y,z 
_cell_length_a                    28.32398092 
_cell_length_b                    27.654560967753227 
_cell_length_c                    28.94787883202772 
_cell_angle_alpha                 89.14383578356274 
_cell_angle_beta                  89.5429774179058 
_cell_angle_gamma                 88.71123618707689 
loop_ 
_atom_site_label 
_atom_site_type_symbol 
_atom_site_fract_x 
_atom_site_fract_y 
_atom_site_fract_z 
_atom_site_charge 
C1          C  0.71674096  0.04133426  0.01831896     0.85600
C2          C  0.76980238  0.04786802  0.02797449    -0.54600
C3          C  0.79942796  0.01958245  0.00192426     0.08500
C4          C  0.77327192  0.98649659  0.96827647     0.19500
C5          C  0.71178034  0.04976613  0.96618893    -0.55300
C6          C  0.74088882  0.02114804  0.93981344     0.08600
C7          C  0.71081647  0.98734009  0.02657349    -0.54900
C8          C  0.73911713  0.95865131  0.00021078     0.09200
H9          H  0.78347250  0.06961619  0.05547607     0.13700
H10         H  0.79721032  0.96295809  0.94739180    -0.00500
H11         H  0.68787736  0.07700199  0.95140279     0.14000
H12         H  0.68756478  0.97269107  0.05311427     0.13800
C13         C  0.69318594  0.76220707  0.76799348     0.85600
C14         C  0.68537773  0.81641437  0.75776444    -0.54600
C15         C  0.71241950  0.84653490  0.78305324     0.08500
C16         C  0.74521495  0.81894199  0.81766980     0.19500
C17         C  0.74673850  0.75328232  0.76244655    -0.55300
C18         C  0.77429879  0.78229229  0.78833990     0.08600
C19         C  0.68584754  0.75635752  0.82014987    -0.54900
C20         C  0.71173030  0.78649737  0.84624804     0.09200
H21         H  0.66081147  0.82965975  0.73160557     0.13700
H22         H  0.76714555  0.84275790  0.83887716    -0.00500
H23         H  0.76154141  0.72544352  0.74015912     0.14000
H24         H  0.66612585  0.72769017  0.83624995     0.13800
C25         C  0.96003718  0.02750703  0.75551838     0.85600
C26         C  0.97676015  0.03994891  0.80395519    -0.54600
C27         C  0.95245082  0.01889065  0.83918637     0.08500
C28         C  0.91241734  0.98615793  0.82264500     0.19500
C29         C  0.96039047  0.97177161  0.75406766    -0.55300
C30         C  0.93819357  0.94992818  0.79031078     0.08600
C31         C  0.90697517  0.04088288  0.75553643    -0.54900
C32         C  0.88155726  0.01931937  0.79016124     0.09200
H33         H  0.00662690  0.06309939  0.80966653     0.13700
H34         H  0.89237249  0.96860728  0.85118953    -0.00500
H35         H  0.97714196  0.95026526  0.72761004     0.14000
H36         H  0.89064631  0.06529826  0.73031348     0.13800
C37         C  0.20226897  0.27867735  0.75740490     0.85600
C38         C  0.25489140  0.26729654  0.74733037    -0.54600
C39         C  0.28566535  0.29278967  0.77338306     0.08500
C40         C  0.26103856  0.32809045  0.80689355     0.19500
C41         C  0.19637623  0.27143457  0.80972724    -0.55300
C42         C  0.22670535  0.29700703  0.83578027     0.08600
C43         C  0.19662429  0.33346887  0.75190259    -0.54900
C44         C  0.22855821  0.35914353  0.77538517     0.09200
H45         H  0.26665648  0.24246914  0.72065464     0.13700
H46         H  0.28582820  0.34948727  0.82747897    -0.00500
H47         H  0.16934372  0.24884984  0.82501924     0.14000
H48         H  0.16808540  0.35185181  0.73396805     0.13800
O49         O  0.47859635  0.23550020  0.88033325    -0.81800
O50         O  0.51285850  0.26023472  0.66815110    -0.66500
O51         O  0.50267010  0.28107291  0.79708249    -1.13100
C52         C  0.33714355  0.29308352  0.76381308     1.05100
O53         O  0.46605204  0.32328516  0.65673199    -0.79700
O54         O  0.41572324  0.37146844  0.72010867    -0.67200
Ni55       Ni  0.53367119  0.23745720  0.83851639     1.34900
C56         C  0.42941949  0.38377603  0.75982364     0.83900
O57         O  0.57665590  0.27274406  0.73273989    -0.80200
O58         O  0.59296629  0.24191628  0.80329602    -0.90500
C59         C  0.49353828  0.29040841  0.64110183     0.83400
O60         O  0.51635038  0.17768236  0.80810670    -0.68700
O61         O  0.34983869  0.29874545  0.72170639    -0.88000
C62         C  0.51387780  0.16706470  0.76520600     0.84300
C63         C  0.60572173  0.25992277  0.76403041     1.05800
H64         H  0.43087023  0.23669750  0.73074494     0.37600
O65         O  0.44148184  0.26934232  0.73482622    -1.10600
O66         O  0.43837575  0.35364981  0.79195161    -0.67300
Ni67       Ni  0.43469993  0.28486044  0.79879923     1.26300
O68         O  0.51339726  0.19952135  0.73387303    -0.67500
O69         O  0.36619367  0.28906882  0.79744354    -0.79800
C70         C  0.45274613  0.27194868  0.89318770     0.83600
O71         O  0.43248811  0.29884207  0.86328585    -0.67000
Ni72       Ni  0.40911528  0.31005746  0.69098880     1.27400
Ni73       Ni  0.50940477  0.26958509  0.73254598     1.26100
H74         H  0.51506663  0.31264510  0.80294540     0.38200
C75         C  0.48011968  0.51016127  0.75276445     0.85600
C76         C  0.43184658  0.53591774  0.76002568    -0.54600
C77         C  0.40199465  0.51225263  0.78917391     0.08500
C78         C  0.42378703  0.46512914  0.81014259     0.19500
C79         C  0.49920647  0.50543358  0.80218666    -0.55300
C80         C  0.47028572  0.48172270  0.83229823     0.08600
C81         C  0.46863137  0.45904016  0.73805340    -0.54900
C82         C  0.43961420  0.43509353  0.76767683     0.09200
H83         H  0.42142279  0.56966203  0.74292708     0.13700
H84         H  0.39990849  0.44579507  0.83440940    -0.00500
H85         H  0.53090387  0.52298429  0.81353251     0.14000
H86         H  0.48352904  0.44255660  0.70718178     0.13800
C87         C  0.46737080  0.27370978  0.02528028     0.85600
C88         C  0.46690564  0.25361124  0.97612830    -0.54600
C89         C  0.44651004  0.28305643  0.94367787     0.08500
C90         C  0.42395283  0.33017547  0.96495669     0.19500
C91         C  0.48773168  0.32486651  0.02103117    -0.55300
C92         C  0.46546107  0.35498848  0.99004816     0.08600
C93         C  0.41470081  0.28285293  0.03636238    -0.54900
C94         C  0.39151227  0.31207665  0.00519531     0.09200
H95         H  0.48407195  0.21940047  0.96734774     0.13700
H96         H  0.40564401  0.35424363  0.93944477    -0.00500
H97         H  0.51735077  0.33633645  0.04149385     0.14000
H98         H  0.39588852  0.26731065  0.06544667     0.13800
O99         O  0.75885846  0.78396469  0.13139676    -0.81800
O100        O  0.73913919  0.80340674  0.92199058    -0.66500
O101        O  0.71288410  0.80813687  0.05130982    -1.13100
C102        C  0.70224324  0.63743906  0.03552957     1.05100
O103        O  0.67685622  0.75817214  0.91567787    -0.79700
O104        O  0.62777679  0.71205985  0.98182538    -0.67200
Ni105      Ni  0.75425448  0.83958407  0.09161770     1.34900
C106        C  0.61269185  0.73025480  0.01917741     0.83900
O107        O  0.73056688  0.87654581  0.98140000    -0.80200
O108        O  0.75171737  0.89676005  0.05365688    -0.90500
C109        C  0.70946247  0.78274376  0.89705954     0.83400
O110        O  0.81306038  0.82102487  0.06467464    -0.68700
O111        O  0.69943132  0.64608566  0.99216055    -0.88000
C112        C  0.82516837  0.81144589  0.02362394     0.84300
C113        C  0.74180554  0.90723284  0.01165381     1.05800
H114        H  0.75691777  0.72531532  0.99499343     0.37600
O115        O  0.72515406  0.73872868  0.99652609    -1.10600
O116        O  0.63965474  0.74506577  0.05063039    -0.67300
Ni117      Ni  0.70702766  0.73949636  0.06024010     1.26300
O118        O  0.79589972  0.80531164  0.99145772    -0.67500
O119        O  0.70240143  0.67007551  0.06633639    -0.79800
C120        C  0.72270270  0.76554885  0.15005152     0.83600
O121        O  0.69274236  0.74520949  0.12495881    -0.67000
Ni122      Ni  0.68890184  0.70290150  0.95503964     1.27400
Ni123      Ni  0.72796692  0.80756172  0.98701509     1.26100
H124        H  0.68211614  0.82353683  0.05485368     0.38200
C125        C  0.86202007  0.40073067  0.90350026    -0.03400
C126        C  0.96366620  0.53810342  0.77796260     0.85600
C127        C  0.01815802  0.53430902  0.77998149    -0.54600
C128        C  0.04097731  0.56256533  0.74847304     0.08500
C129        C  0.00778078  0.59445908  0.71894026     0.19500
C130        C  0.95353879  0.59229213  0.78530426    -0.55300
C131        C  0.97572855  0.62187313  0.75422655     0.08600
C132        C  0.95194077  0.52909228  0.72724076    -0.54900
C133        C  0.97522501  0.55775898  0.69645125     0.09200
H134        H  0.03816828  0.51128658  0.80369278     0.13700
H135        H  0.02612044  0.61817779  0.69355956    -0.00500
H136        H  0.92933121  0.60613001  0.81147909     0.14000
H137        H  0.92789615  0.50137032  0.71654072     0.13800
C138        C  0.74770780  0.50725051  0.03903937     0.85600
C139        C  0.69821129  0.49071416  0.02500605    -0.54600
C140        C  0.66168969  0.51533527  0.04543247     0.08500
C141        C  0.67821780  0.55489092  0.07913530     0.19500
C142        C  0.74567491  0.56141345  0.02749546    -0.55300
C143        C  0.71056810  0.58662035  0.04898712     0.08600
C144        C  0.74808779  0.50310910  0.09196129    -0.54900
C145        C  0.71201666  0.52806476  0.11320571     0.09200
H146        H  0.69257261  0.46369380  0.99887467     0.13700
H147        H  0.64883765  0.57535785  0.09608218    -0.00500
H148        H  0.76707964  0.57855918  0.00109425     0.14000
H149        H  0.77359052  0.48075397  0.11087498     0.13800
C150        C  0.22201813  0.01930496  0.53924438     0.85600
C151        C  0.27412817  0.02674469  0.55064791    -0.54600
C152        C  0.30492393  0.00028939  0.52535800     0.08500
C153        C  0.28143303  0.96919800  0.48837149     0.19500
C154        C  0.22016243  0.03245902  0.48746558    -0.55300
C155        C  0.25073747  0.00617063  0.46053426     0.08600
C156        C  0.21565714  0.96457240  0.54294343    -0.54900
C157        C  0.24630174  0.93815867  0.51640871     0.09200
H158        H  0.28748801  0.05458756  0.57247835     0.13700
H159        H  0.30690233  0.94795578  0.46696574    -0.00500
H160        H  0.19832903  0.06188396  0.47350315     0.14000
H161        H  0.19168544  0.94791856  0.56764379     0.13800
C162        C  0.09123265  0.14800488  0.64270083    -0.03400
C163        C  0.95652664  0.78306733  0.03239942     0.85600
C164        C  0.90357742  0.77563551  0.03851271    -0.54600
C165        C  0.87597344  0.80722291  0.01381345     0.08500
C166        C  0.90391467  0.84409063  0.98435526     0.19500
C167        C  0.96549620  0.78172413  0.97991368    -0.55300
C168        C  0.93787015  0.81306647  0.95474278     0.08600
C169        C  0.96445345  0.83650540  0.04381102    -0.54900
C170        C  0.93656867  0.86835197  0.01943986     0.09200
H171        H  0.88905032  0.74907662  0.06242275     0.13700
H172        H  0.88144255  0.87016706  0.96430054    -0.00500
H173        H  0.99326355  0.76019031  0.96359554     0.14000
H174        H  0.98994592  0.84827772  0.06885858     0.13800
C175        C  0.22285834  0.55880829  0.00341417     0.85600
C176        C  0.21619367  0.50357163  0.00850482    -0.54600
C177        C  0.24636240  0.47570249  0.98319462     0.08500
C178        C  0.27889870  0.50523534  0.95153602     0.19500
C179        C  0.27542455  0.56618776  0.01147018    -0.55300
C180        C  0.30458915  0.53851815  0.98443458     0.08600
C181        C  0.21620171  0.56779888  0.95096203    -0.54900
C182        C  0.24617123  0.54030735  0.92400240     0.09200
H183        H  0.19074984  0.48684223  0.03158712     0.13700
H184        H  0.30296674  0.48275467  0.92974487    -0.00500
H185        H  0.28840031  0.59075741  0.03717704     0.14000
H186        H  0.19116854  0.59378410  0.93616328     0.13800
C187        C  0.20272150  0.76069426  0.27028309     0.85600
C188        C  0.20303869  0.74514221  0.32163795    -0.54600
C189        C  0.23360293  0.77032791  0.34836761     0.08500
C190        C  0.26313967  0.80734078  0.32024447     0.19500
C191        C  0.19474271  0.81536860  0.27015600    -0.55300
C192        C  0.22580681  0.84031969  0.29572238     0.08600
C193        C  0.25448597  0.75270427  0.25568249    -0.54900
C194        C  0.28645498  0.77688889  0.28103907     0.09200
H195        H  0.18092733  0.71705305  0.33595066     0.13700
H196        H  0.28860443  0.82739478  0.34126694    -0.00500
H197        H  0.16674379  0.83298564  0.25018938     0.14000
H198        H  0.26498382  0.72938324  0.22735519     0.13800
C199        C  0.08751089  0.65342196  0.13716988    -0.03400
C200        C  0.48004552  0.76110015  0.51259027     0.85600
C201        C  0.49813953  0.81277282  0.51351641    -0.54600
C202        C  0.47064629  0.84569725  0.49049662     0.08500
C203        C  0.42684000  0.82408265  0.46789193     0.19500
C204        C  0.42888229  0.76420423  0.53013154    -0.55300
C205        C  0.40115585  0.79695181  0.50722737     0.08600
C206        C  0.47393994  0.74966510  0.46124462    -0.54900
C207        C  0.44767753  0.78370059  0.43743081     0.09200
H208        H  0.52981275  0.82261596  0.53180741     0.13700
H209        H  0.40412366  0.85085751  0.44895641    -0.00500
H210        H  0.41466411  0.74056244  0.55688893     0.14000
H211        H  0.49165012  0.71991171  0.44385738     0.13800
O212        O  0.21630948  0.72663488  0.41804183    -0.81800
O213        O  0.18626475  0.75947266  0.62870629    -0.66500
O214        O  0.18673655  0.77604480  0.49681651    -1.13100
C215        C  0.35090369  0.80123257  0.51929919     1.05100
O216        O  0.22788716  0.82523756  0.63370676    -0.79700
O217        O  0.27087157  0.87450307  0.56508613    -0.67200
Ni218      Ni  0.16147508  0.72816972  0.45815695     1.34900
C219        C  0.25374477  0.88616096  0.52602755     0.83900
O220        O  0.11740318  0.75918143  0.56425678    -0.80200
O221        O  0.10398530  0.72841289  0.49373356    -0.90500
C222        C  0.20520255  0.79131288  0.65311047     0.83400
O223        O  0.18510990  0.67210715  0.49105357    -0.68700
O224        O  0.34086843  0.80561757  0.56211689    -0.88000
C225        C  0.19236749  0.66353532  0.53374356     0.84300
C226        C  0.09017458  0.74280680  0.53342364     1.05800
H227        H  0.26700222  0.74100098  0.56032249     0.37600
O228        O  0.25211945  0.77252283  0.55603245    -1.10600
O229        O  0.24233970  0.85557255  0.49597045    -0.67300
Ni230      Ni  0.25321620  0.78664722  0.49101755     1.26300
O231        O  0.19185755  0.69629599  0.56384853    -0.67500
O232        O  0.32029819  0.79662880  0.48763506    -0.79800
C233        C  0.23393091  0.76434102  0.39962931     0.83600
O234        O  0.25006271  0.79692620  0.42521871    -0.67000
Ni235      Ni  0.28341095  0.81449016  0.59646158     1.27400
Ni236      Ni  0.18478516  0.76582033  0.56240676     1.26100
H237        H  0.16978345  0.80598459  0.48997218     0.38200
O238        O  0.23364567  0.65944800  0.80570679    -0.81800
O239        O  0.24812684  0.43867269  0.79724172    -0.66500
O240        O  0.25518522  0.57198037  0.76312827    -1.13100
C241        C  0.09163261  0.55381433  0.73993175     1.05100
O242        O  0.21470170  0.42929323  0.73008569    -0.79700
O243        O  0.18584581  0.49925134  0.67208333    -0.67200
Ni244      Ni  0.28735348  0.61524122  0.80155935     1.34900
C245        C  0.19676208  0.54208513  0.66096863     0.83900
O246        O  0.32037338  0.49800404  0.79034435    -0.80200
O247        O  0.34391613  0.57458624  0.79833693    -0.90500
C248        C  0.23066055  0.41145287  0.76767557     0.83400
O249        O  0.27007171  0.58903589  0.86091025    -0.68700
O250        O  0.10367380  0.51147757  0.72620894    -0.88000
C251        C  0.25301128  0.54903690  0.87403149     0.84300
C252        C  0.35238607  0.52914421  0.79420683     1.05800
H253        H  0.17060158  0.51010133  0.80013389     0.37600
O254        O  0.18752268  0.51404429  0.77124057    -1.10600
O255        O  0.19568634  0.57629044  0.68962595    -0.67300
Ni256      Ni  0.18815743  0.58107000  0.75589883     1.26300
O257        O  0.24392434  0.51532183  0.84655141    -0.67500
O258        O  0.12075332  0.58603949  0.75112314    -0.79800
C259        C  0.20909439  0.67645900  0.77218164     0.83600
O260        O  0.19108603  0.64863808  0.74344074    -0.67000
Ni261      Ni  0.16057236  0.47190313  0.72811980     1.27400
Ni262      Ni  0.25366513  0.50531185  0.78155602     1.26100
H263        H  0.27033385  0.57361577  0.73310834     0.38200
O264        O  0.06960637  0.83529325  0.78624576    -0.81800
O265        O  0.85273882  0.80728882  0.80622786    -0.66500
O266        O  0.98726764  0.78550391  0.81092856    -1.13100
C267        C  0.96956700  0.75176121  0.65196813     1.05100
O268        O  0.84541874  0.73931988  0.76903615    -0.79700
O269        O  0.91951745  0.68366050  0.73929509    -0.67200
Ni270      Ni  0.02624351  0.83284416  0.83806265     1.34900
C271        C  0.96217474  0.67361086  0.74939728     0.83900
O272        O  0.91554296  0.80584427  0.87626689    -0.80200
O273        O  0.98828152  0.83167817  0.89330941    -0.90500
C274        C  0.82670967  0.77641136  0.78781674     0.83400
O275        O  0.99401807  0.89021174  0.81509910    -0.68700
O276        O  0.92729876  0.74144525  0.66308028    -0.88000
C277        C  0.95152794  0.89927889  0.80325225     0.84300
C278        C  0.94681103  0.81873424  0.90485929     1.05800
H279        H  0.92287292  0.81796375  0.72898587     0.37600
O280        O  0.92828866  0.78759593  0.74522747    -1.10600
O281        O  0.99338994  0.70549660  0.75413089    -0.67300
Ni282      Ni  0.99535776  0.77509093  0.74589881     1.26300
O283        O  0.92077851  0.86687240  0.80078807    -0.67500
O284        O  0.00050256  0.76583070  0.68031267    -0.79800
C285        C  0.08856894  0.79839111  0.76715261     0.83600
O286        O  0.06277230  0.76612984  0.75043555    -0.67000
Ni287      Ni  0.88860109  0.74158756  0.71745812     1.27400
Ni288      Ni  0.92011987  0.79762772  0.81041520     1.26100
H289        H  0.99316807  0.75527730  0.82732604     0.38200
C290        C  0.22327789  0.81224656  0.78252684     0.85600
C291        C  0.16981784  0.82266514  0.78980035    -0.54600
C292        C  0.14109550  0.79393282  0.76430015     0.08500
C293        C  0.16898214  0.75736767  0.73363923     0.19500
C294        C  0.22901637  0.75851547  0.79301333    -0.55300
C295        C  0.20217165  0.72940056  0.76753998     0.08600
C296        C  0.22929406  0.81878352  0.73024812    -0.54900
C297        C  0.20185044  0.78983941  0.70429689     0.09200
H298        H  0.15526696  0.85058657  0.81191814     0.13700
H299        H  0.14642356  0.73376460  0.71285023    -0.00500
H300        H  0.25388543  0.74448545  0.81862065     0.14000
H301        H  0.25239514  0.84550621  0.71497947     0.13800
O302        O  0.58133762  0.82468449  0.27480135    -0.81800
O303        O  0.36646509  0.79949925  0.29041229    -0.66500
O304        O  0.49935327  0.77425947  0.29192776    -1.13100
C305        C  0.48743501  0.75376673  0.13191553     1.05100
O306        O  0.35184965  0.74270079  0.23955286    -0.79700
O307        O  0.43000394  0.68470641  0.22325230    -0.67200
Ni308      Ni  0.53920064  0.81485300  0.32633255     1.34900
C309        C  0.47335361  0.67292151  0.22838201     0.83900
O310        O  0.42808170  0.78591506  0.35829239    -0.80200
O311        O  0.50166154  0.80437845  0.38038166    -0.90500
C312        C  0.33784889  0.77310954  0.26979921     0.83400
O313        O  0.50753119  0.87657190  0.31522375    -0.68700
O314        O  0.44706068  0.73736872  0.14292704    -0.88000
C315        C  0.46537673  0.88878032  0.30416804     0.84300
C316        C  0.45929715  0.79224716  0.38890215     1.15400
H317        H  0.43519468  0.81875116  0.21297086     0.37600
O318        O  0.44100610  0.78686086  0.22600652    -1.10600
O319        O  0.50602651  0.70344726  0.22648703    -0.67300
Ni320      Ni  0.50834364  0.77326255  0.22636636     1.26300
O321        O  0.43504278  0.85799581  0.29290701    -0.67500
O322        O  0.51479829  0.77314329  0.16053767    -0.79800
C323        C  0.60069729  0.78893554  0.25410001     0.83600
O324        O  0.57519070  0.76111516  0.23123104    -0.67000
Ni325      Ni  0.40298357  0.74159245  0.19425928     1.27400
Ni326      Ni  0.43300361  0.78786745  0.29224750     1.26100
H327        H  0.50412192  0.74183962  0.30413815     0.38200
C328        C  0.36842069  0.91023130  0.89219981    -0.03400
C329        C  0.48314890  0.03159352  0.76170212     0.85600
C330        C  0.48308057  0.08435120  0.77732160    -0.54600
C331        C  0.50944336  0.11488593  0.75113219     0.08500
C332        C  0.53344358  0.08893323  0.70860034     0.19500
C333        C  0.46710456  0.03431843  0.71061001    -0.55300
C334        C  0.49278252  0.06339756  0.68224910     0.08600
C335        C  0.53544447  0.01593913  0.75731181    -0.54900
C336        C  0.56243032  0.04589047  0.73052696     0.09200
H337        H  0.46319313  0.09674901  0.80731108     0.13700
H338        H  0.55487912  0.11314007  0.68629291    -0.00500
H339        H  0.44027579  0.01245706  0.69553847     0.14000
H340        H  0.54983014  0.98295995  0.77298441     0.13800
C341        C  0.48275493  0.76673111  0.00117539     0.85600
C342        C  0.47757661  0.78182458  0.05184617    -0.54600
C343        C  0.50062175  0.75228380  0.08266292     0.08500
C344        C  0.52956904  0.71103878  0.05994807     0.19500
C345        C  0.53680377  0.76557513  0.99342304    -0.55300
C346        C  0.56115613  0.73684015  0.02400000     0.08600
C347        C  0.46923306  0.71318552  0.00027569    -0.54900
C348        C  0.49321573  0.68415821  0.03090849     0.09200
H349        H  0.45578224  0.81240058  0.06286491     0.13700
H350        H  0.54905000  0.68727000  0.08491678    -0.00500
H351        H  0.55575694  0.78590829  0.96733840     0.14000
H352        H  0.44285545  0.69923503  0.97728323     0.13800
C353        C  0.72406170  0.53275375  0.50386304     0.85600
C354        C  0.71650702  0.53769858  0.45131446    -0.54600
C355        C  0.74793768  0.51071566  0.42546014     0.08500
C356        C  0.78331549  0.47996656  0.45543164     0.19500
C357        C  0.72323706  0.47880441  0.51576490    -0.55300
C358        C  0.75379197  0.45081740  0.49134790     0.08600
C359        C  0.77574945  0.54707584  0.50818456    -0.54900
C360        C  0.80683642  0.51881613  0.48452358     0.09200
H361        H  0.69384301  0.56548189  0.43581169     0.13700
H362        H  0.80883080  0.45747861  0.43525554    -0.00500
H363        H  0.70174417  0.46416170  0.54372495     0.14000
H364        H  0.78730388  0.57826981  0.52696591     0.13800
O365        O  0.74525443  0.64579079  0.30874136    -0.81800
O366        O  0.76150251  0.41880803  0.29215694    -0.66500
O367        O  0.76708935  0.55538683  0.26648256    -1.13100
C368        C  0.60246002  0.54580710  0.23989344     1.05100
O369        O  0.71467222  0.40690114  0.23302341    -0.79700
O370        O  0.68745675  0.48087041  0.17640233    -0.67200
Ni371      Ni  0.79524159  0.59578499  0.31117411     1.34900
C372        C  0.70214207  0.52181691  0.16321483     0.83900
O373        O  0.83258749  0.48019433  0.28514993    -0.80200
O374        O  0.85020677  0.55234042  0.31484028    -0.90500
C375        C  0.74113742  0.39034925  0.26541984     0.83400
O376        O  0.76637622  0.56771681  0.36567141    -0.68700
O377        O  0.61091506  0.50082110  0.23288230    -0.88000
C378        C  0.75815851  0.52383429  0.37628134     0.84300
C379        C  0.86200178  0.51013491  0.30033849     1.05800
H380        H  0.68344019  0.49588251  0.30375922     0.37600
O381        O  0.69832314  0.49813390  0.27367935    -1.10600
O382        O  0.70865529  0.55669484  0.19067585    -0.67300
Ni383      Ni  0.70094194  0.56585989  0.25695314     1.26300
O384        O  0.75969395  0.49045135  0.34678930    -0.67500
O385        O  0.63422217  0.57556259  0.24948361    -0.79800
C386        C  0.72221850  0.66217020  0.27375494     0.83600
O387        O  0.70691983  0.63355055  0.24382953    -0.67000
Ni388      Ni  0.66485466  0.45642766  0.23419934     1.27400
Ni389      Ni  0.76538664  0.48718819  0.28034051     1.26100
H390        H  0.78377467  0.55991420  0.23757411     0.38200
C391        C  0.72051225  0.25367936  0.26038069     0.85600
C392        C  0.71744354  0.24994446  0.31267297    -0.54600
C393        C  0.74916999  0.27668254  0.33556686     0.08500
C394        C  0.78132987  0.30688099  0.30309701     0.19500
C395        C  0.71657064  0.30789715  0.24852960    -0.55300
C396        C  0.74670026  0.33654334  0.27122112     0.08600
C397        C  0.77229241  0.24126688  0.24803268    -0.54900
C398        C  0.80463423  0.26791911  0.27100108     0.09200
H399        H  0.69204953  0.22702866  0.33023301     0.13700
H400        H  0.80686656  0.32929149  0.32167452    -0.00500
H401        H  0.69233643  0.32300544  0.22307041     0.14000
H402        H  0.78251458  0.21380680  0.22325559     0.13800
O403        O  0.67760608  0.91801456  0.74935180    -0.81800
O404        O  0.70136079  0.13919120  0.72628673    -0.66500
O405        O  0.72625670  0.00267298  0.72808929    -1.13100
C406        C  0.74427717  0.02962211  0.88946701     1.05100
O407        O  0.76741223  0.14650548  0.76422357    -0.79700
O408        O  0.81919763  0.07496530  0.80572044    -0.67200
Ni409      Ni  0.68553999  0.96072777  0.69625443     1.34900
C410        C  0.83035323  0.03141762  0.79652867     0.83900
O411        O  0.70871053  0.07481003  0.65897025    -0.80200
O412        O  0.69280244  0.99843887  0.63970947    -0.90500
C413        C  0.73214635  0.16577095  0.74351575     0.83400
O414        O  0.62580642  0.99207508  0.71063593    -0.68700
O415        O  0.75460245  0.07258285  0.87685895    -0.88000
C416        C  0.61378644  0.03474788  0.72260848     0.84300
C417        C  0.70219288  0.04232677  0.62917720     1.05800
H418        H  0.68730444  0.07093977  0.80498252     0.37600
O419        O  0.71798455  0.06506220  0.79106280    -1.10600
O420        O  0.79973089  0.99897934  0.79087157    -0.67300
Ni421      Ni  0.73102038  0.99694673  0.79453895     1.26300
O422        O  0.64381258  0.06733591  0.72965246    -0.67500
O423        O  0.73486418  0.99569361  0.86144519    -0.79800
C424        C  0.71018767  0.90012954  0.77512676     0.83600
O425        O  0.73960625  0.92754193  0.79415327    -0.67000
Ni426      Ni  0.76046253  0.10766902  0.81952780     1.27400
Ni427      Ni  0.71219009  0.07086635  0.72515700     1.26100
H428        H  0.75738140  0.99769248  0.71489007     0.38200
C429        C  0.73508346  0.30013042  0.77252193     0.85600
C430        C  0.73635220  0.31798288  0.72206744    -0.54600
C431        C  0.71249983  0.29028869  0.69176479     0.08500
C432        C  0.68692368  0.24728180  0.71587434     0.19500
C433        C  0.68186091  0.29704164  0.78475543    -0.55300
C434        C  0.65663124  0.26932576  0.75544598     0.08600
C435        C  0.75082481  0.24676271  0.77157711    -0.54900
C436        C  0.72620001  0.21896075  0.74218190     0.09200
H437        H  0.75733073  0.34851666  0.71098489     0.13700
H438        H  0.66662012  0.22463677  0.69206029    -0.00500
H439        H  0.66515528  0.31274980  0.81495856     0.14000
H440        H  0.77783447  0.23176934  0.79444568     0.13800
O441        O  0.73163926  0.23776782  0.40687709    -0.81800
O442        O  0.70276183  0.26619136  0.61315947    -0.66500
O443        O  0.70301747  0.29040204  0.48247454    -1.13100
C444        C  0.86428171  0.31889517  0.50497463     1.05100
O445        O  0.74017533  0.33425539  0.62460778    -0.79700
O446        O  0.76839210  0.39052922  0.54928613    -0.67200
Ni447      Ni  0.67473001  0.24582546  0.44223877     1.34900
C448        C  0.76297488  0.39976768  0.50631818     0.83900
O449        O  0.63360206  0.26747100  0.54937152    -0.80200
O450        O  0.61610357  0.25277778  0.47500325    -0.90500
C451        C  0.71850458  0.29728976  0.64052407     0.83400
O452        O  0.68988505  0.18624951  0.47397381    -0.68700
O453        O  0.85080348  0.33481364  0.54433678    -0.88000
C454        C  0.70542011  0.17573532  0.51394457     0.84300
C455        C  0.60421373  0.26061937  0.51689700     1.05800
H456        H  0.78454834  0.25658346  0.54922929     0.37600
O457        O  0.76777645  0.28664653  0.54253681    -1.10600
O458        O  0.76417882  0.36717744  0.47603423    -0.67300
Ni459      Ni  0.77008666  0.29748629  0.47678153     1.26300
O460        O  0.71262204  0.20739263  0.54426862    -0.67500
O461        O  0.83679026  0.30262036  0.47471568    -0.79800
C462        C  0.75071600  0.27341021  0.38662243     0.83600
O463        O  0.76904708  0.30564526  0.41068165    -0.67000
Ni464      Ni  0.79357513  0.33416045  0.58138933     1.27400
Ni465      Ni  0.70111360  0.27656931  0.54749116     1.26100
H466        H  0.68767467  0.32151678  0.47726115     0.38200
C467        C  0.86482369  0.90792362  0.39344828    -0.03400
C468        C  0.74083757  0.04224314  0.50212510     0.85600
C469        C  0.74133780  0.02975343  0.55390006    -0.54600
C470        C  0.70917488  0.05475717  0.57969071     0.08500
C471        C  0.67957086  0.09192291  0.55140158     0.19500
C472        C  0.68983203  0.03761093  0.48645113    -0.55300
C473        C  0.65770399  0.06155824  0.51306908     0.08600
C474        C  0.74763652  0.09769642  0.49950852    -0.54900
C475        C  0.71526041  0.12390156  0.52493490     0.09200
H476        H  0.76492410  0.00238299  0.56895712     0.13700
H477        H  0.65327400  0.11257355  0.57240085    -0.00500
H478        H  0.67980128  0.01649129  0.45694532     0.14000
H479        H  0.77116246  0.11560669  0.47538867     0.13800
C480        C  0.95830858  0.76950342  0.52283932     0.85600
C481        C  0.95216894  0.77942612  0.57415530    -0.54600
C482        C  0.97996644  0.75167015  0.60240225     0.08500
C483        C  0.01132135  0.71430714  0.57674813     0.19500
C484        C  0.01118175  0.77227609  0.51258335    -0.55300
C485        C  0.03898298  0.74454750  0.54103654     0.08600
C486        C  0.94841781  0.71481261  0.51939492    -0.54900
C487        C  0.97593018  0.68609452  0.54737978     0.09200
H488        H  0.92511873  0.80411243  0.58748810     0.13700
H489        H  0.03361681  0.69097234  0.59976144    -0.00500
H490        H  0.02555800  0.79407715  0.48448160     0.14000
H491        H  0.92251374  0.69856786  0.49763979     0.13800
C492        C  0.73345221  0.80108540  0.27665190     0.85600
C493        C  0.73971575  0.74780018  0.29229587    -0.54600
C494        C  0.71382398  0.71566081  0.26809532     0.08500
C495        C  0.68187680  0.74080523  0.23079728     0.19500
C496        C  0.74307551  0.80080197  0.22470221    -0.55300
C497        C  0.71673961  0.76936819  0.20053681     0.08600
C498        C  0.68006472  0.81038507  0.28183285    -0.54900
C499        C  0.65281610  0.78076147  0.25646175     0.09200
H500        H  0.76464483  0.73629578  0.31881223     0.13700
H501        H  0.66014999  0.71551353  0.21100489    -0.00500
H502        H  0.76907364  0.82397043  0.20840817     0.14000
H503        H  0.66431535  0.83697121  0.30458040     0.13800
C504        C  0.24340536  0.53449899  0.53600295     0.85600
C505        C  0.24020760  0.58947647  0.52597045    -0.54600
C506        C  0.20472348  0.61326966  0.54811233     0.08500
C507        C  0.17464132  0.58014224  0.57955680     0.19500
C508        C  0.24564299  0.52936737  0.58920555    -0.55300
C509        C  0.20925301  0.55278649  0.61199881     0.08600
C510        C  0.19388382  0.51776301  0.52370821    -0.54900
C511        C  0.15824565  0.54013155  0.54735597     0.09200
H512        H  0.26034873  0.60885088  0.50010379     0.13700
H513        H  0.14529163  0.59937552  0.59780348    -0.00500
H514        H  0.27160920  0.50669716  0.60705940     0.14000
H515        H  0.18750022  0.49021275  0.49824754     0.13800
O516        O  0.60014077  0.47310557  0.00627045    -0.81800
O517        O  0.38155821  0.50507728  0.97335592    -0.66500
O518        O  0.51497779  0.51949219  0.97696507    -1.13100
C519        C  0.48192056  0.55145697  0.13574105     1.05100
O520        O  0.37450611  0.57424822  0.00926932    -0.79700
O521        O  0.44018301  0.62367836  0.05328913    -0.67200
Ni522      Ni  0.55663790  0.47055174  0.95362400     1.34900
C523        C  0.48122255  0.63290813  0.03832216     0.83900
O524        O  0.44859621  0.50262415  0.90817071    -0.80200
O525        O  0.52007626  0.46717700  0.89688184    -0.90500
C526        C  0.35597337  0.53931243  0.98886311     0.83400
O527        O  0.52471688  0.41505108  0.97966212    -0.68700
O528        O  0.43886068  0.55730221  0.12395204    -0.88000
C529        C  0.48066770  0.40633410  0.98264507     0.84300
C530        C  0.47976196  0.48282571  0.88236640     1.05800
H531        H  0.44577623  0.48813121  0.05422781     0.37600
O532        O  0.45092720  0.51885465  0.03897287    -1.10600
O533        O  0.51207544  0.60030213  0.02962294    -0.67300
Ni534      Ni  0.51643790  0.53164248  0.04202090     1.26300
O535        O  0.44910089  0.43980117  0.98003525    -0.67500
O536        O  0.51584633  0.54343366  0.10745239    -0.79800
C537        C  0.61198438  0.50946145  0.03050758     0.83600
O538        O  0.58209642  0.54147453  0.04236386    -0.67000
Ni539      Ni  0.40796348  0.56472762  0.06577452     1.27400
Ni540      Ni  0.44846042  0.51004874  0.97346037     1.26100
H541        H  0.52193018  0.54895550  0.96018325     0.38200
C542        C  0.47200376  0.54032317  0.26633350     0.85600
C543        C  0.46616657  0.52640696  0.21575148    -0.54600
C544        C  0.49172081  0.55322208  0.18528577     0.08500
C545        C  0.52254079  0.59119236  0.20805941     0.19500
C546        C  0.52560698  0.53735675  0.27486543    -0.55300
C547        C  0.55225318  0.56141481  0.24357326     0.08600
C548        C  0.46073883  0.59460115  0.26793417    -0.54900
C549        C  0.48611726  0.62146502  0.23712021     0.09200
H550        H  0.44165404  0.49925066  0.20471384     0.13700
H551        H  0.54352009  0.61283055  0.18298611    -0.00500
H552        H  0.54309374  0.51743271  0.30249946     0.14000
H553        H  0.43342084  0.61026894  0.29002774     0.13800
C554        C  0.35561487  0.42584444  0.39702570    -0.03400
C555        C  0.47291820  0.29393766  0.51218419     0.85600
C556        C  0.52466232  0.29120155  0.49716231    -0.54600
C557        C  0.55317787  0.26520699  0.52646202     0.08500
C558        C  0.52686407  0.24286075  0.56811086     0.19500
C559        C  0.45746699  0.24170931  0.51909087    -0.55300
C560        C  0.48639737  0.21461623  0.54663386     0.08600
C561        C  0.47321375  0.31267791  0.56166488    -0.54900
C562        C  0.50060943  0.28590441  0.59120193     0.09200
H563        H  0.53781955  0.30936473  0.46624672     0.13700
H564        H  0.54973317  0.22073169  0.59162570    -0.00500
H565        H  0.42560790  0.22683141  0.50538825     0.14000
H566        H  0.44990623  0.34191273  0.57321591     0.13800
O567        O  0.37125521  0.02852361  0.56642294    -0.81800
O568        O  0.58009979  0.06584298  0.54138615    -0.66500
O569        O  0.44927315  0.06285987  0.51982180    -1.13100
C570        C  0.48182484  0.89725849  0.49007658     1.05100
O571        O  0.59171547  0.03001006  0.47432648    -0.79700
O572        O  0.52483909  0.98742693  0.42073593    -0.67200
Ni573      Ni  0.40552878  0.08837723  0.56336519     1.34900
C574        C  0.48203246  0.99789286  0.41096185     0.83900
O575        O  0.51291178  0.13424767  0.54125935    -0.80200
O576        O  0.43646042  0.14953491  0.56010334    -0.90500
C577        C  0.60727088  0.05248565  0.50911998     0.83400
O578        O  0.43737670  0.07394839  0.62089628    -0.68700
O579        O  0.52440841  0.90967000  0.48169778    -0.88000
C580        C  0.48055227  0.06632003  0.63141850     0.84300
C581        C  0.47861401  0.16285030  0.55119786     1.05800
H582        H  0.51869951  0.98065949  0.55179416     0.37600
O583        O  0.51331614  0.99751924  0.52277096    -1.10600
O584        O  0.45088808  0.00441800  0.44226684    -0.67300
Ni585      Ni  0.44805739  0.99478454  0.50896970     1.26300
O586        O  0.51219162  0.05875097  0.60056181    -0.67500
O587        O  0.44853947  0.92679417  0.50014271    -0.79800
C588        C  0.35550157  0.00787025  0.53053691     0.83600
O589        O  0.38293654  0.99498606  0.49863440    -0.67000
Ni590      Ni  0.55623939  0.97098548  0.47834411     1.27400
Ni591      Ni  0.51446256  0.06595835  0.53311192     1.26100
H592        H  0.44380668  0.07989809  0.49092380     0.38200
C593        C  0.47485074  0.02338554  0.27818543     0.85600
C594        C  0.47611498  0.96903607  0.26943462    -0.54600
C595        C  0.45276159  0.94165290  0.30100540     0.08500
C596        C  0.42695817  0.97269559  0.33886370     0.19500
C597        C  0.42250773  0.03882680  0.28199471    -0.55300
C598        C  0.39629411  0.01207735  0.31219767     0.08600
C599        C  0.49265628  0.02770219  0.32862229    -0.54900
C600        C  0.46775610  0.00154259  0.36087324     0.09200
H601        H  0.49798592  0.95297622  0.24242153     0.13700
H602        H  0.40674973  0.95082781  0.36435647    -0.00500
H603        H  0.40722508  0.06891368  0.26226495     0.14000
H604        H  0.52239150  0.04942993  0.33815794     0.13800
C605        C  0.99081482  0.51312685  0.26078855     0.85600
C606        C  0.99263477  0.45923395  0.24905559    -0.54600
C607        C  0.96895455  0.43027051  0.27950506     0.08500
C608        C  0.94322214  0.45883834  0.31855286     0.19500
C609        C  0.93853964  0.52776018  0.26567603    -0.55300
C610        C  0.91308092  0.49911822  0.29444117     0.08600
C611        C  0.00825882  0.51487793  0.31101316    -0.54900
C612        C  0.98336003  0.48687065  0.34115569     0.09200
H613        H  0.01549190  0.44473056  0.22205168     0.13700
H614        H  0.92296007  0.43592364  0.34315613    -0.00500
H615        H  0.92270953  0.55912063  0.24829055     0.14000
H616        H  0.03531573  0.53876757  0.32296243     0.13800
O617        O  0.09950028  0.48729437  0.52141837    -0.81800
O618        O  0.88710840  0.49390467  0.47715639    -0.66500
O619        O  0.01578163  0.52654716  0.48897984    -1.13100
C620        C  0.96909436  0.55265217  0.64633615     1.05100
O621        O  0.87157718  0.56262936  0.51096379    -0.79700
O622        O  0.92679533  0.61971075  0.56092016    -0.67200
Ni623      Ni  0.06428247  0.48491691  0.46498629     1.34900
C624        C  0.96814680  0.63358782  0.55141402     0.83900
O625        O  0.95659643  0.50231305  0.41634793    -0.80200
O626        O  0.03325145  0.48153742  0.40587852    -0.90500
C627        C  0.85752099  0.52551027  0.49025325     0.83400
O628        O  0.03898506  0.42370415  0.48342955    -0.68700
O629        O  0.92674073  0.55402716  0.63142524    -0.88000
C630        C  0.99640372  0.41044279  0.48629780     0.84300
C631        C  0.99137856  0.48958610  0.39097978     1.05800
H632        H  0.94617048  0.48508051  0.56215985     0.37600
O633        O  0.94929929  0.51649508  0.54747043    -1.10600
O634        O  0.00263427  0.60454273  0.54493638    -0.67300
Ni635      Ni  0.01242847  0.53620091  0.55486520     1.26300
O636        O  0.96149794  0.43996078  0.48730981    -0.67500
O637        O  0.00572373  0.54641443  0.62062708    -0.79800
C638        C  0.10901183  0.52633931  0.54186458     0.83600
O639        O  0.07655879  0.55308852  0.55829959    -0.67000
Ni640      Ni  0.90012467  0.55739135  0.57069110     1.27400
Ni641      Ni  0.95193476  0.50877174  0.48157072     1.26100
H642        H  0.01950169  0.55752677  0.47374932     0.38200
C643        C  0.99112000  0.27297008  0.50907840     0.85600
C644        C  0.01087707  0.32459129  0.51196268    -0.54600
C645        C  0.98614937  0.35831302  0.48641454     0.08500
C646        C  0.94477847  0.33714109  0.45913539     0.19500
C647        C  0.93957103  0.28030008  0.52380457    -0.55300
C648        C  0.91500286  0.31254504  0.49711283     0.08600
C649        C  0.99080738  0.26178625  0.45772167    -0.54900
C650        C  0.96744872  0.29522288  0.43114557     0.09200
H651        H  0.04012341  0.33417473  0.53379290     0.13700
H652        H  0.92480128  0.36411065  0.43769457    -0.00500
H653        H  0.92340224  0.26168446  0.55296045     0.14000
H654        H  0.01121745  0.23189423  0.44305306     0.13800
C655        C  0.25397386  0.02470990  0.02229576     0.85600
C656        C  0.25845484  0.07935610  0.02018413    -0.54600
C657        C  0.22448592  0.10436672  0.04344387     0.08500
C658        C  0.18973211  0.07216106  0.07035733     0.19500
C659        C  0.25499612  0.01263804  0.07449166    -0.55300
C660        C  0.22175859  0.03789784  0.09974825     0.08600
C661        C  0.20278635  0.01406035  0.00898343    -0.54900
C662        C  0.16922879  0.03919820  0.03318114     0.09200
H663        H  0.28514012  0.09738875  0.99943351     0.13700
H664        H  0.16247672  0.09265844  0.09032425    -0.00500
H665        H  0.27836983  0.98597567  0.09065570     0.14000
H666        H  0.19372748  0.98868401  0.98236129     0.13800
O667        O  0.00003035  0.05398722  0.89688981    -0.81800
O668        O  0.02128404  0.04937661  0.11272680    -0.66500
O669        O  0.01656897  0.01338902  0.98599725    -1.13100
C670        C  0.85035582  0.01549419  0.01295674     1.05100
O671        O  0.97194470  0.99175368  0.13177980    -0.79700
O672        O  0.93025892  0.93623564  0.06790252    -0.67200
Ni673      Ni  0.05169084  0.04920658  0.94079664     1.34900
C674        C  0.93732940  0.92091480  0.02724057     0.83900
O675        O  0.08838731  0.02860408  0.05177253    -0.80200
O676        O  0.10811407  0.04647123  0.97832261    -0.90500
C677        C  0.00107815  0.02392074  0.14313665     0.83400
O678        O  0.03551947  0.11250323  0.96275754    -0.68700
O679        O  0.86122545  0.00689148  0.05512728    -0.88000
C680        C  0.02911299  0.12796814  0.00351648     0.84300
C681        C  0.11876741  0.03795364  0.02052972     1.05800
H682        H  0.94272559  0.06892059  0.04763939     0.37600
O683        O  0.95320949  0.03552850  0.04556120    -1.10600
O684        O  0.94465842  0.94859270  0.99279013    -0.67300
Ni685      Ni  0.94864549  0.01719767  0.98243999     1.26300
O686        O  0.02432862  0.10049145  0.03850342    -0.67500
O687        O  0.88078027  0.02178196  0.98089079    -0.79800
C688        C  0.96733231  0.02457298  0.88777031     0.83600
O689        O  0.94711740  0.00049960  0.91918519    -0.67000
Ni690      Ni  0.91842766  0.00004690  0.09093652     1.27400
Ni691      Ni  0.02083483  0.03211745  0.04940538     1.26100
H692        H  0.02697060  0.97992822  0.98398158     0.38200
C693        C  0.99596688  0.02206871  0.27519151     0.85600
C694        C  0.05017268  0.01723995  0.28050724    -0.54600
C695        C  0.07551092  0.04123691  0.24744524     0.08500
C696        C  0.04357496  0.07001236  0.21225442     0.19500
C697        C  0.98608089  0.07690954  0.27512395    -0.55300
C698        C  0.00897110  0.10216996  0.24145326     0.08600
C699        C  0.98782510  0.00575367  0.22569564    -0.54900
C700        C  0.01123046  0.03110927  0.19256603     0.09200
H701        H  0.06840487  0.99502193  0.30603176     0.13700
H702        H  0.06337872  0.09033878  0.18530182    -0.00500
H703        H  0.96188267  0.09449479  0.29910561     0.14000
H704        H  0.96400774  0.97685210  0.21754694     0.13800
C705        C  0.99373025  0.26180165  0.99802801     0.85600
C706        C  0.99734206  0.20892434  0.98305918    -0.54600
C707        C  0.02506047  0.18037884  0.01073280     0.08500
C708        C  0.04999245  0.20796360  0.04955291     0.19500
C709        C  0.98031202  0.26064342  0.04932770    -0.55300
C710        C  0.00957265  0.23330903  0.07657854     0.08600
C711        C  0.04591702  0.27705089  0.99634702    -0.54900
C712        C  0.07555576  0.24898644  0.02310592     0.09200
H713        H  0.98064840  0.19484753  0.95272145     0.13700
H714        H  0.07364197  0.18476521  0.07137200    -0.00500
H715        H  0.95011900  0.28080081  0.06317368     0.14000
H716        H  0.05903783  0.30430150  0.97236749     0.13800
O717        O  0.27352341  0.30797540  0.12580160    -0.81800
O718        O  0.25407607  0.31576761  0.91102577    -0.66500
O719        O  0.22786995  0.32530526  0.04059636    -1.13100
C720        C  0.21619465  0.15485619  0.02962727     1.05100
O721        O  0.19062481  0.27200358  0.90584084    -0.79700
O722        O  0.14031594  0.23122652  0.97492782    -0.67200
Ni723      Ni  0.26880502  0.35961299  0.07952569     1.34900
C724        C  0.12694966  0.24729136  0.01377310     0.83900
O725        O  0.24437579  0.39161996  0.96725811    -0.80200
O726        O  0.26489309  0.41525036  0.03834362    -0.90500
C727        C  0.22413052  0.29475698  0.88663023     0.83400
O728        O  0.32792523  0.33789254  0.05314978    -0.68700
O729        O  0.20931921  0.16253459  0.98656042    -0.88000
C730        C  0.34055533  0.32466376  0.01290770     0.84300
C731        C  0.25335688  0.42420680  0.99635683     1.05800
H732        H  0.27081724  0.24021508  0.98477583     0.37600
O733        O  0.23941332  0.25430304  0.98712291    -1.10600
O734        O  0.15542457  0.26070425  0.04455165    -0.67300
Ni735      Ni  0.22342590  0.25694568  0.05126751     1.26300
O736        O  0.31126043  0.31919205  0.98047711    -0.67500
O737        O  0.22049101  0.18798194  0.05932558    -0.79800
C738        C  0.24038286  0.28211935  0.14234631     0.83600
O739        O  0.21100190  0.26290390  0.11591662    -0.67000
Ni740      Ni  0.20070261  0.21834190  0.94757325     1.27400
Ni741      Ni  0.24283260  0.32263389  0.97583327     1.26100
H742        H  0.19674882  0.34012925  0.04373577     0.38200
O743        O  0.18842288  0.91559780  0.27599543    -0.81800
O744        O  0.21512578  0.13045426  0.24478065    -0.66500
O745        O  0.24003179  0.99405661  0.24889293    -1.13100
C746        C  0.25620131  0.01762691  0.41058764     1.05100
O747        O  0.27654197  0.14334681  0.28942804    -0.79700
O748        O  0.33190728  0.06771836  0.32673060    -0.67200
Ni749      Ni  0.19760280  0.95189373  0.21969637     1.34900
C750        C  0.34426463  0.02393966  0.31839330     0.83900
O751        O  0.22221939  0.06279318  0.17826233    -0.80200
O752        O  0.20659205  0.98514599  0.16175255    -0.90500
C753        C  0.24273141  0.15942788  0.26376930     0.83400
O754        O  0.13814113  0.98571543  0.22979711    -0.68700
O755        O  0.26699780  0.06094151  0.39915047    -0.88000
C756        C  0.12688217  0.02872436  0.24118515     0.84300
C757        C  0.21581100  0.02855923  0.14972859     1.05800
H758        H  0.20014749  0.06168515  0.32504059     0.37600
O759        O  0.23117039  0.05652412  0.31163487    -1.10600
O760        O  0.31404247  0.99102373  0.31269221    -0.67300
Ni761      Ni  0.24506694  0.98815053  0.31507330     1.26300
O762        O  0.15763301  0.05998988  0.24977610    -0.67500
O763        O  0.24744957  0.98497878  0.38143627    -0.79800
C764        C  0.22302144  0.89402728  0.29586353     0.83600
O765        O  0.25472539  0.91906010  0.31395171    -0.67000
Ni766      Ni  0.27197518  0.09902704  0.34244587     1.27400
Ni767      Ni  0.22603477  0.06183598  0.24514898     1.26100
H768        H  0.27094387  0.98841475  0.23532744     0.38200
O769        O  0.09665738  0.31358563  0.26018156    -0.81800
O770        O  0.88483378  0.28823492  0.28260496    -0.66500
O771        O  0.01791496  0.26347686  0.28617011    -1.13100
C772        C  0.00050409  0.23059429  0.12699031     1.05100
O773        O  0.87199540  0.22211261  0.24297679    -0.79700
O774        O  0.95048841  0.16300688  0.22258643    -0.67200
Ni775      Ni  0.05742237  0.30935643  0.31433799     1.34900
C776        C  0.99412333  0.15312922  0.22983539     0.83900
O777        O  0.94712824  0.28517336  0.35223357    -0.80200
O778        O  0.02102691  0.30661589  0.37051226    -0.90500
C779        C  0.85655471  0.25924444  0.26482654     0.83400
O780        O  0.02539208  0.36851809  0.29656195    -0.68700
O781        O  0.96015749  0.21530008  0.13985969    -0.88000
C782        C  0.98320520  0.37846838  0.28461544     0.84300
C783        C  0.97843160  0.29693091  0.38134272     1.05800
H784        H  0.95246393  0.29720910  0.20433388     0.37600
O785        O  0.95862038  0.26700157  0.22064651    -1.10600
O786        O  0.02548308  0.18508010  0.22794387    -0.67300
Ni787      Ni  0.02590815  0.25467310  0.22053378     1.26300
O788        O  0.95304192  0.34624076  0.27766022    -0.67500
O789        O  0.03045604  0.24784312  0.15461472    -0.79800
C790        C  0.11763194  0.27660814  0.24338631     0.83600
O791        O  0.09331695  0.24484655  0.22436452    -0.67000
Ni792      Ni  0.91978151  0.21916487  0.19406151     1.27400
Ni793      Ni  0.95138102  0.27684944  0.28611829     1.26100
H794        H  0.02330716  0.23279946  0.30191448     0.38200
C795        C  0.24691959  0.29809441  0.27376311     0.85600
C796        C  0.25856435  0.30544555  0.22240638    -0.54600
C797        C  0.23658331  0.27495914  0.19332456     0.08500
C798        C  0.20396726  0.23874389  0.21892234     0.19500
C799        C  0.19273177  0.30165847  0.27611312    -0.55300
C800        C  0.16992447  0.27219266  0.24688744     0.08600
C801        C  0.25733367  0.24452114  0.28449149    -0.54900
C802        C  0.23623039  0.21286576  0.25589701     0.09200
H803        H  0.28068209  0.33454687  0.20995265     0.13700
H804        H  0.18564925  0.21381342  0.19567123    -0.00500
H805        H  0.17257752  0.32427829  0.29947228     0.14000
H806        H  0.27806958  0.23247556  0.31403424     0.13800
C807        C  0.58633371  0.14325474  0.14800560    -0.03400
C808        C  0.59743885  0.63464601  0.63435706    -0.03400
C809        C  0.51390595  0.08725984  0.16376586    -0.21200
C810        C  0.56041262  0.10025805  0.17460545    -0.07700
C811        C  0.58127179  0.06972296  0.20949629     0.13100
C812        C  0.55256994  0.05213402  0.24547285    -0.21200
C813        C  0.50339989  0.04969276  0.24031560    -0.07800
C814        C  0.48589862  0.06039172  0.19501997     0.13100
C815        C  0.43987282  0.04232995  0.17675216    -0.24600
H816        H  0.49880701  0.09833879  0.13094647     0.14400
H817        H  0.56933896  0.03262997  0.27387896     0.14400
C818        C  0.62555629  0.03932907  0.20150729    -0.24500
H819        H  0.44623757  0.02542241  0.14262513     0.04600
H820        H  0.41436660  0.07306105  0.17221531     0.07900
H821        H  0.42400891  0.01386295  0.19866064     0.07900
H822        H  0.65107202  0.04440980  0.22987485     0.07800
H823        H  0.64246204  0.04621799  0.16759306     0.07800
H824        H  0.61646757  0.00042853  0.20159125     0.04600
C825        C  0.37666014  0.34144647  0.43118007    -0.21200
C826        C  0.38452500  0.39185898  0.43037660    -0.07700
C827        C  0.41986488  0.40912055  0.46087477     0.13100
C828        C  0.44859324  0.37580970  0.48459503    -0.21200
C829        C  0.44355946  0.32588665  0.48026417    -0.07800
C830        C  0.41013135  0.30894705  0.44887219     0.13100
C831        C  0.41393706  0.26059949  0.42536917    -0.24600
H832        H  0.34727534  0.32588865  0.41371598     0.14400
H833        H  0.47572082  0.38894703  0.50712661     0.14400
C834        C  0.42933390  0.46171414  0.46942168    -0.24500
H835        H  0.41134316  0.26608078  0.38733378     0.04600
H836        H  0.38460256  0.23714255  0.43670665     0.07900
H837        H  0.44869876  0.24230112  0.43090679     0.07900
H838        H  0.39961906  0.47845185  0.48875720     0.07800
H839        H  0.43698709  0.48118056  0.43690347     0.07800
H840        H  0.46078693  0.46648159  0.49143188     0.04600
C841        C  0.34688303  0.36247286  0.33538191    -0.21200
C842        C  0.32307601  0.39612227  0.36442745    -0.07700
C843        C  0.27360596  0.40300422  0.35677645     0.13100
C844        C  0.25051345  0.37132356  0.32728134    -0.21200
C845        C  0.27407424  0.33294244  0.30418431    -0.07800
C846        C  0.32396547  0.33039266  0.30696581     0.13100
C847        C  0.35470258  0.29465344  0.28026395    -0.24600
H848        H  0.38473262  0.35955699  0.33648925     0.14400
H849        H  0.21371056  0.37888105  0.32144464     0.14400
C850        C  0.24399209  0.44500928  0.37494191    -0.24500
H851        H  0.39292419  0.30069155  0.28545261     0.04600
H852        H  0.34868575  0.29825124  0.24265430     0.07900
H853        H  0.34872378  0.25704506  0.29192327     0.07900
H854        H  0.26234613  0.47972910  0.37101914     0.07800
H855        H  0.23322037  0.43827511  0.41119826     0.07800
H856        H  0.21053959  0.45005509  0.35550723     0.04600
C857        C  0.46295167  0.47208605  0.32407473    -0.21200
C858        C  0.44136173  0.50915646  0.29775113    -0.07700
C859        C  0.39130800  0.51126850  0.29709024     0.13100
C860        C  0.36619778  0.48237746  0.32833553    -0.21200
C861        C  0.38855746  0.45170537  0.36143439    -0.07800
C862        C  0.43798753  0.44164088  0.35352803     0.13100
C863        C  0.46718581  0.39755220  0.36903283    -0.24600
H864        H  0.49952617  0.46251988  0.31872836     0.14400
H865        H  0.32813086  0.48542967  0.32787629     0.14400
C866        C  0.36217725  0.54246253  0.26420975    -0.24500
H867        H  0.48939634  0.38418211  0.33985168     0.04600
H868        H  0.44742262  0.36534986  0.37851332     0.07900
H869        H  0.49150575  0.40748148  0.39704939     0.07900
H870        H  0.38286875  0.56268651  0.23825583     0.07800
H871        H  0.34051745  0.56893169  0.28417261     0.07800
H872        H  0.33810146  0.51917696  0.24474723     0.04600
C873        C  0.31147172  0.53105609  0.47813056    -0.21200
C874        C  0.28092510  0.50618576  0.50798799    -0.07700
C875        C  0.28027913  0.45532936  0.50461794     0.13100
C876        C  0.30160167  0.43319192  0.46630895    -0.21200
C877        C  0.32755632  0.45889479  0.43190840    -0.07800
C878        C  0.33199549  0.51008718  0.43872650     0.13100
C879        C  0.35685696  0.54555340  0.40702546    -0.24600
H880        H  0.31947737  0.56806440  0.48505002     0.14400
H881        H  0.29852295  0.39438563  0.46339982     0.14400
C882        C  0.25912185  0.42350817  0.54198763    -0.24500
H883        H  0.35946952  0.58201413  0.42224979     0.04600
H884        H  0.33574277  0.55181524  0.37544233     0.07900
H885        H  0.39370987  0.53463984  0.39935922     0.07900
H886        H  0.22094673  0.43098339  0.54707825     0.07800
H887        H  0.27775966  0.42904175  0.57496799     0.07800
H888        H  0.26319152  0.38453120  0.53374931     0.04600
C889        C  0.98230457  0.95836923  0.33845035    -0.21200
C890        C  0.96349331  0.99381601  0.30802191    -0.07700
C891        C  0.91346213  0.99779891  0.30430533     0.13100
C892        C  0.88532359  0.96885050  0.33249881    -0.21200
C893        C  0.90352528  0.93340654  0.36365117    -0.07800
C894        C  0.95399019  0.92634006  0.36400180     0.13100
C895        C  0.98170152  0.88561666  0.38744168    -0.24600
H896        H  0.01986795  0.95252903  0.34072959     0.14400
H897        H  0.84756618  0.97525334  0.33112065     0.14400
C898        C  0.88770275  0.03224232  0.27119299    -0.24500
H899        H  0.00903789  0.87110533  0.36328600     0.04600
H900        H  0.96130396  0.85380203  0.39695145     0.07900
H901        H  0.00005145  0.89952322  0.41812681     0.07900
H902        H  0.89939788  0.02721693  0.23503366     0.07800
H903        H  0.89185377  0.07027781  0.28125057     0.07800
H904        H  0.84903601  0.02632980  0.27129992     0.04600
C905        C  0.91301898  0.88715390  0.46418279    -0.21200
C906        C  0.88229266  0.87006778  0.43031549    -0.07700
C907        C  0.86707940  0.82113398  0.43648279     0.13100
C908        C  0.89309522  0.78972125  0.46531951    -0.21200
C909        C  0.92941853  0.80565412  0.49354848    -0.07800
C910        C  0.93704840  0.85632207  0.49513142     0.13100
C911        C  0.97073796  0.87941859  0.52831248    -0.24600
H912        H  0.92073606  0.92509584  0.46462897     0.14400
H913        H  0.88215085  0.75277534  0.46694151     0.14400
C914        C  0.82236315  0.79914207  0.41832210    -0.24500
H915        H  0.97225871  0.91918925  0.52279144     0.04600
H916        H  0.00726281  0.86527838  0.52375019     0.07900
H917        H  0.95906865  0.87398136  0.56453801     0.07900
H918        H  0.83150594  0.77162432  0.39197910     0.07800
H919        H  0.79551655  0.82465755  0.40475530     0.07800
H920        H  0.80373627  0.78044716  0.44717046     0.04600
C921        C  0.79679343  0.92831854  0.44751697    -0.21200
C922        C  0.83670479  0.94594391  0.42385309    -0.07700
C923        C  0.84870737  0.99520903  0.43294971     0.13100
C924        C  0.81584365  0.02551471  0.45568877    -0.21200
C925        C  0.77404303  0.00816130  0.47538976    -0.07800
C926        C  0.76597483  0.95754092  0.47325263     0.13100
C927        C  0.72548465  0.93233890  0.49773342    -0.24600
H928        H  0.78889903  0.89058082  0.44513949     0.14400
H929        H  0.82545271  0.06254244  0.46099701     0.14400
C930        C  0.89649335  0.01774024  0.42539426    -0.24500
H931        H  0.72822119  0.89241250  0.49433538     0.04600
H932        H  0.69092397  0.94291248  0.48284819     0.07900
H933        H  0.72543902  0.93925631  0.53524757     0.07900
H934        H  0.92614479  0.99173995  0.42246184     0.07800
H935        H  0.90580318  0.03924718  0.45602840     0.07800
H936        H  0.89533134  0.04275210  0.39507347     0.04600
C937        C  0.78700933  0.90418263  0.34703536    -0.21200
C938        C  0.83279027  0.88472843  0.35608750    -0.07700
C939        C  0.84842890  0.84588539  0.32714743     0.13100
C940        C  0.81508990  0.82084208  0.30176585    -0.21200
C941        C  0.76731208  0.83530559  0.30033942    -0.07800
C942        C  0.75542254  0.88176783  0.31757433     0.13100
C943        C  0.71413446  0.91237145  0.30074235    -0.24600
H944        H  0.77609144  0.93882250  0.36082612     0.14400
H945        H  0.82633535  0.78877899  0.28320129     0.14400
C946        C  0.89910676  0.82851681  0.32301444    -0.24500
H947        H  0.72570414  0.94985762  0.29335485     0.04600
H948        H  0.68607755  0.91400877  0.32771113     0.07900
H949        H  0.70022062  0.89955791  0.26753471     0.07900
H950        H  0.91192520  0.81373693  0.35624789     0.07800
H951        H  0.92151095  0.85795786  0.30974989     0.07800
H952        H  0.90335872  0.79870800  0.29792245     0.04600
C953        C  0.63966516  0.24580099  0.22549634    -0.21200
C954        C  0.68237997  0.22332557  0.23856557    -0.07700
C955        C  0.68660944  0.17312414  0.23271665     0.13100
C956        C  0.65394742  0.15041216  0.20502042    -0.21200
C957        C  0.61404970  0.17384949  0.18449535    -0.07800
C958        C  0.60781706  0.22445116  0.19556433     0.13100
C959        C  0.57320508  0.26062744  0.17431115    -0.24600
H960        H  0.63146607  0.28183539  0.23753647     0.14400
H961        H  0.66469355  0.11529861  0.19440189     0.14400
C962        C  0.72481036  0.14153281  0.25443729    -0.24500
H963        H  0.58076548  0.29854655  0.18346633     0.04600
H964        H  0.53755566  0.25543953  0.18808185     0.07900
H965        H  0.57562531  0.26119936  0.13626180     0.07900
H966        H  0.74525106  0.16006937  0.28100476     0.07800
H967        H  0.74916411  0.12762578  0.22721266     0.07800
H968        H  0.70837045  0.11025945  0.27232517     0.04600
C969        C  0.70970793  0.57546651  0.57898792    -0.21200
C970        C  0.69095158  0.55958459  0.53685225    -0.07700
C971        C  0.64133941  0.55640965  0.53404136     0.13100
C972        C  0.61340972  0.57613723  0.56930973    -0.21200
C973        C  0.63264528  0.60250912  0.60600524    -0.07800
C974        C  0.68189312  0.59556270  0.61399239     0.13100
C975        C  0.70784109  0.60438181  0.65860564    -0.24600
H976        H  0.74641258  0.56888863  0.58722732     0.14400
H977        H  0.57571635  0.57441139  0.56590945     0.14400
C978        C  0.61682023  0.53192616  0.49485388    -0.24500
H979        H  0.72902434  0.57148125  0.66816638     0.04600
H980        H  0.68550563  0.61119328  0.68907525     0.07900
H981        H  0.73249528  0.63470150  0.65355907     0.07900
H982        H  0.57821370  0.52940288  0.50118793     0.07800
H983        H  0.63082751  0.49449269  0.49054075     0.07800
H984        H  0.62107397  0.55300679  0.46235315     0.04600
C985        C  0.32848907  0.97353878  0.00632216    -0.21200
C986        C  0.28991501  0.00122180  0.98939323    -0.07700
C987        C  0.28744711  0.00957628  0.94071175     0.13100
C988        C  0.31688100  0.98248063  0.91170325    -0.21200
C989        C  0.34939176  0.94730483  0.92839732    -0.07800
C990        C  0.36027516  0.94930881  0.97655023     0.13100
C991        C  0.40566257  0.93120441  0.99856854    -0.24600
H992        H  0.33585408  0.97238864  0.04285076     0.14400
H993        H  0.31207354  0.98687893  0.87511249     0.14400
C994        C  0.25365370  0.04566337  0.91744235    -0.24500
H995        H  0.42124565  0.96099396  0.01830581     0.04600
H996        H  0.43336347  0.91996979  0.97385994     0.07900
H997        H  0.39830255  0.90104889  0.02314090     0.07900
H998        H  0.26032225  0.08300285  0.92836376     0.07800
H999        H  0.21632181  0.03692485  0.92385901     0.07800
H1000       H  0.25806940  0.04607868  0.87927538     0.04600
C1001       C  0.37832295  0.84041414  0.94907303    -0.21200
C1002       C  0.39991120  0.86853626  0.91398274    -0.07700
C1003       C  0.44680250  0.85353361  0.90063710     0.13100
C1004       C  0.47242609  0.82146126  0.92958263    -0.21200
C1005       C  0.45227533  0.79872472  0.96860772    -0.07800
C1006       C  0.40285158  0.80559418  0.97572188     0.13100
C1007       C  0.37440473  0.77686854  0.01079619    -0.24600
H1008       H  0.34154049  0.84677434  0.95692692     0.14400
H1009       H  0.50791018  0.81224343  0.91885031     0.14400
C1010       C  0.47140212  0.86497718  0.85523390    -0.24500
H1011       H  0.33629845  0.78721746  0.00988252     0.04600
H1012       H  0.38585886  0.78292219  0.04656757     0.07900
H1013       H  0.37652655  0.73779387  0.00321072     0.07900
H1014       H  0.50174956  0.88873645  0.86136270     0.07800
H1015       H  0.44879576  0.88084459  0.82806991     0.07800
H1016       H  0.48543594  0.83086428  0.84000101     0.04600
C1017       C  0.41009332  0.98249584  0.78127191    -0.21200
C1018       C  0.45375838  0.00011865  0.79542013    -0.07700
C1019       C  0.46583336  0.99290897  0.84275141     0.13100
C1020       C  0.43619300  0.96569015  0.87193702    -0.21200
C1021       C  0.39484064  0.94352807  0.85638503    -0.07800
C1022       C  0.37963041  0.95691678  0.81055487     0.13100
C1023       C  0.33085458  0.95109062  0.79005141    -0.24600
H1024       H  0.39636766  0.99179957  0.74778177     0.14400
H1025       H  0.44665938  0.95988445  0.90737671     0.14400
C1026       C  0.50964469  0.01342485  0.86395338    -0.24500
H1027       H  0.31865739  0.98599229  0.77420493     0.04600
H1028       H  0.30231541  0.94260573  0.81436901     0.07900
H1029       H  0.33259683  0.92382308  0.76228270     0.07900
H1030       H  0.50992857  0.05328076  0.86013846     0.07800
H1031       H  0.54199647  0.99734719  0.84837791     0.07800
H1032       H  0.51163989  0.00531301  0.90159517     0.04600
C1033       C  0.24603237  0.86304471  0.85086605    -0.21200
C1034       C  0.26005984  0.83859595  0.81073131    -0.07700
C1035       C  0.30950798  0.83049999  0.80321358     0.13100
C1036       C  0.34178431  0.85193210  0.83237389    -0.21200
C1037       C  0.32792126  0.88143430  0.86951455    -0.07800
C1038       C  0.27871283  0.88116673  0.88208582     0.13100
C1039       C  0.25748396  0.89381029  0.92863362    -0.24600
H1040       H  0.20926647  0.86452314  0.86085589     0.14400
H1041       H  0.37883961  0.84742977  0.82450046     0.14400
C1042       C  0.33014157  0.79944536  0.76488401    -0.24500
H1043       H  0.23606429  0.86314485  0.94144678     0.04600
H1044       H  0.23359547  0.92598380  0.92500589     0.07900
H1045       H  0.28285316  0.89952322  0.95628564     0.07900
H1046       H  0.32326650  0.81604246  0.73056930     0.07800
H1047       H  0.31649545  0.76229128  0.76646547     0.07800
H1048       H  0.36916219  0.79546533  0.76735940     0.04600
C1049       C  0.50332407  0.72749631  0.58959791    -0.21200
C1050       C  0.51182727  0.72808628  0.54171176    -0.07700
C1051       C  0.55453821  0.70666372  0.52560295     0.13100
C1052       C  0.58090070  0.67708998  0.55568862    -0.21200
C1053       C  0.56889770  0.67081905  0.60309367    -0.07800
C1054       C  0.53099342  0.70042139  0.62049920     0.13100
C1055       C  0.51856706  0.70575864  0.67111659    -0.24600
H1056       H  0.47557579  0.75047660  0.60375708     0.14400
H1057       H  0.61316075  0.66160713  0.54175888     0.14400
C1058       C  0.57612287  0.71723397  0.47873661    -0.24500
H1059       H  0.48475351  0.72612753  0.67633542     0.04600
H1060       H  0.54574274  0.72724070  0.68813392     0.07900
H1061       H  0.51390956  0.67055258  0.68877349     0.07900
H1062       H  0.56601178  0.75382481  0.46561222     0.07800
H1063       H  0.56626485  0.68897922  0.45398676     0.07800
H1064       H  0.61529251  0.71697991  0.48079989     0.04600
C1065       C  0.06411469  0.55725319  0.23468561    -0.21200
C1066       C  0.01741995  0.54443339  0.22584276    -0.07700
C1067       C  0.99658642  0.56156121  0.18423175     0.13100
C1068       C  0.01776783  0.59901141  0.15944568    -0.21200
C1069       C  0.06415667  0.61412963  0.16877859    -0.07800
C1070       C  0.08844495  0.58982559  0.20626881     0.13100
C1071       C  0.14026387  0.59541771  0.21762470    -0.24600
H1072       H  0.08312953  0.54009326  0.26298275     0.14400
H1073       H  0.99843416  0.61305470  0.13008938     0.14400
C1074       C  0.95343075  0.53999622  0.16288453    -0.24500
H1075       H  0.15819838  0.55934906  0.21953285     0.04600
H1076       H  0.14353191  0.61230594  0.25198107     0.07900
H1077       H  0.16015666  0.61681215  0.19187725     0.07900
H1078       H  0.92369154  0.56685714  0.16303134     0.07800
H1079       H  0.94226475  0.50613770  0.18015591     0.07800
H1080       H  0.96151401  0.53038591  0.12649862     0.04600
C1081       C  0.17746004  0.74242911  0.18947962    -0.21200
C1082       C  0.16807750  0.73754601  0.23716381    -0.07700
C1083       C  0.12281902  0.72077105  0.24964380     0.13100
C1084       C  0.09706548  0.69554149  0.21687531    -0.21200
C1085       C  0.11209369  0.69099424  0.16993940    -0.07800
C1086       C  0.14731816  0.72420537  0.15603611     0.13100
C1087       C  0.14630774  0.75222481  0.11112472    -0.24600
H1088       H  0.20616750  0.76505948  0.17797781     0.14400
H1089       H  0.06405220  0.68018990  0.22830332     0.14400
C1090       C  0.09812185  0.73248584  0.29457953    -0.24500
H1091       H  0.15077833  0.79136600  0.11768721     0.04600
H1092       H  0.11153616  0.75074507  0.09420070     0.07900
H1093       H  0.17597498  0.74042007  0.08842450     0.07900
H1094       H  0.11458266  0.76247462  0.31300457     0.07800
H1095       H  0.09674827  0.69963471  0.31700494     0.07800
H1096       H  0.06137139  0.74526748  0.28748785     0.04600
C1097       C  0.18231437  0.56548104  0.08088958    -0.21200
C1098       C  0.19291707  0.58802543  0.03852203    -0.07700
C1099       C  0.17468315  0.63556048  0.03178193     0.13100
C1100       C  0.14115491  0.65434554  0.06349518    -0.21200
C1101       C  0.12463414  0.62824696  0.10291939    -0.07800
C1102       C  0.14230670  0.57904605  0.10631216     0.13100
C1103       C  0.11479409  0.53516988  0.12221278    -0.24600
H1104       H  0.19996619  0.53177171  0.09058476     0.14400
H1105       H  0.12489468  0.68837949  0.05406208     0.14400
C1106       C  0.19178611  0.66918519  0.99410646    -0.24500
H1107       H  0.12062241  0.50476348  0.09791338     0.04600
H1108       H  0.07628334  0.54057111  0.12099231     0.07900
H1109       H  0.12700910  0.52131761  0.15618788     0.07900
H1110       H  0.16354804  0.67545103  0.96817645     0.07800
H1111       H  0.22454200  0.65575990  0.97708493     0.07800
H1112       H  0.20074984  0.70445750  0.00924331     0.04600
C1113       C  0.00293062  0.70408926  0.04078219    -0.21200
C1114       C  0.98531246  0.74665030  0.06130235    -0.07700
C1115       C  0.99099658  0.75103598  0.10960635     0.13100
C1116       C  0.02312167  0.72014455  0.13241864    -0.21200
C1117       C  0.04806381  0.68221632  0.10985469    -0.07800
C1118       C  0.03170127  0.67063923  0.06480189     0.13100
C1119       C  0.03918992  0.62243837  0.04168340    -0.24600
H1120       H  0.99189690  0.69477073  0.00642062     0.14400
H1121       H  0.02762869  0.72594265  0.16879710     0.14400
C1122       C  0.96340427  0.78647337  0.13923345    -0.24500
H1123       H  0.00450224  0.60841964  0.03110719     0.04600
H1124       H  0.05448164  0.59427196  0.06450263     0.07900
H1125       H  0.06160100  0.62676668  0.01031729     0.07900
H1126       H  0.93376358  0.80501898  0.12119987     0.07800
H1127       H  0.98754041  0.81390395  0.15278141     0.07800
H1128       H  0.94735310  0.76679891  0.16895549     0.04600
C1129       C  0.02076301  0.16489643  0.58801181    -0.21200
C1130       C  0.06751392  0.17544212  0.60069590    -0.07700
C1131       C  0.09258514  0.20662465  0.56922481     0.13100
C1132       C  0.06673229  0.23736120  0.53969782    -0.21200
C1133       C  0.01781406  0.23400292  0.53607151    -0.07800
C1134       C  0.99676480  0.19172925  0.55412583     0.13100
C1135       C  0.95120127  0.17151033  0.53682267    -0.24600
H1136       H  0.00276228  0.13433200  0.60298419     0.14400
H1137       H  0.08497766  0.26401725  0.51884893     0.14400
C1138       C  0.14572594  0.20866889  0.56488301    -0.24500
H1139       H  0.95720462  0.13307196  0.52731353     0.04600
H1140       H  0.93799108  0.19018348  0.50524669     0.07900
H1141       H  0.92382330  0.17312000  0.56446061     0.07900
H1142       H  0.16071221  0.17321183  0.55422952     0.07800
H1143       H  0.16180943  0.22065510  0.59690935     0.07800
H1144       H  0.15690925  0.23493182  0.53775095     0.04600
C1145       C  0.11040777  0.08352525  0.58461039    -0.21200
C1146       C  0.12875653  0.11494070  0.61832130    -0.07700
C1147       C  0.17841116  0.11135250  0.62667200     0.13100
C1148       C  0.20374164  0.07303427  0.60750152    -0.21200
C1149       C  0.18727234  0.04787872  0.56922375    -0.07800
C1150       C  0.13861211  0.05126215  0.55943506     0.13100
C1151       C  0.11502523  0.01987516  0.52440440    -0.24600
H1152       H  0.07284387  0.08388224  0.57817691     0.14400
H1153       H  0.23800759  0.06549628  0.62203228     0.14400
C1154       C  0.20975902  0.14708126  0.65018784    -0.24500
H1155       H  0.07616617  0.02620805  0.52388878     0.04600
H1156       H  0.12113060  0.98110346  0.53308629     0.07900
H1157       H  0.12787493  0.02756098  0.48896151     0.07900
H1158       H  0.22182309  0.13226826  0.68403412     0.07800
H1159       H  0.19494416  0.18359316  0.65388534     0.07800
H1160       H  0.24175719  0.15310051  0.62851546     0.04600
C1161       C  0.88854429  0.31387028  0.92665746    -0.21200
C1162       C  0.89590669  0.36414496  0.92888908    -0.07700
C1163       C  0.93476188  0.37931563  0.95650729     0.13100
C1164       C  0.96617832  0.34468686  0.97508170    -0.21200
C1165       C  0.95934346  0.29497061  0.97138469    -0.07800
C1166       C  0.91676419  0.27994657  0.95081670     0.13100
C1167       C  0.89590861  0.23067251  0.95847443    -0.24600
H1168       H  0.85780707  0.30050285  0.90961063     0.14400
H1169       H  0.99549858  0.35683652  0.99536100     0.14400
C1170       C  0.94480438  0.43120318  0.96836994    -0.24500
H1171       H  0.85680838  0.23380179  0.96141006     0.04600
H1172       H  0.90740104  0.21376038  0.99157185     0.07900
H1173       H  0.90446258  0.20706897  0.92875078     0.07900
H1174       H  0.91896691  0.44413883  0.99447648     0.07800
H1175       H  0.94570032  0.45523451  0.93764914     0.07800
H1176       H  0.97983250  0.43480842  0.98479408     0.04600
C1177       C  0.84610229  0.47606178  0.95377699    -0.21200
C1178       C  0.83714642  0.42693558  0.94483485    -0.07700
C1179       C  0.80728746  0.40220001  0.97764207     0.13100
C1180       C  0.78207394  0.42889104  0.01080568    -0.21200
C1181       C  0.78725232  0.47868521  0.01487995    -0.07800
C1182       C  0.82558839  0.49997696  0.99134907     0.13100
C1183       C  0.85025225  0.54389910  0.00867899    -0.24600
H1184       H  0.87284436  0.49520288  0.93463786     0.14400
H1185       H  0.75623059  0.41112199  0.03262435     0.14400
C1186       C  0.79918659  0.34836030  0.97843236    -0.24500
H1187       H  0.88821761  0.53473265  0.01408219     0.04600
H1188       H  0.83616431  0.55589467  0.04259063     0.07900
H1189       H  0.84767772  0.57390261  0.98284308     0.07900
H1190       H  0.78956415  0.33486617  0.94415476     0.07800
H1191       H  0.76972667  0.33838058  0.00201016     0.07800
H1192       H  0.83072571  0.32909151  0.99236806     0.04600
C1193       C  0.86645184  0.47445864  0.84979266    -0.21200
C1194       C  0.89093413  0.43424791  0.86967855    -0.07700
C1195       C  0.93786093  0.42475342  0.85170795     0.13100
C1196       C  0.95986506  0.46025038  0.82472592    -0.21200
C1197       C  0.93682058  0.50309013  0.80984556    -0.07800
C1198       C  0.88763757  0.50736406  0.81909896     0.13100
C1199       C  0.85498140  0.54410871  0.79603236    -0.24600
H1200       H  0.82945923  0.48001621  0.85754283     0.14400
H1201       H  0.99471648  0.45135173  0.81168083     0.14400
C1202       C  0.96719600  0.37806857  0.85513249    -0.24500
H1203       H  0.84109086  0.56994594  0.82207947     0.04600
H1204       H  0.82476130  0.52519976  0.78077198     0.07900
H1205       H  0.87134898  0.56444471  0.76723315     0.07900
H1206       H  0.94918215  0.34540116  0.86651878     0.07800
H1207       H  0.99819776  0.38356814  0.87754477     0.07800
H1208       H  0.98058564  0.36833029  0.82020427     0.04600
C1209       C  0.84423658  0.34877030  0.83424540    -0.21200
C1210       C  0.82513626  0.37772263  0.86989911    -0.07700
C1211       C  0.77500175  0.38786365  0.86727586     0.13100
C1212       C  0.74724122  0.36158580  0.83658541    -0.21200
C1213       C  0.76689789  0.32965596  0.80399769    -0.07800
C1214       C  0.81694757  0.32676927  0.80079510     0.13100
C1215       C  0.84425182  0.30130683  0.76277352    -0.24600
H1216       H  0.88185212  0.34355845  0.83155293     0.14400
H1217       H  0.70969154  0.36898701  0.83661285     0.14400
C1218       C  0.74792220  0.42738503  0.89261100    -0.24500
H1219       H  0.86876219  0.32716119  0.74605023     0.04600
H1220       H  0.82236839  0.28717533  0.73491968     0.07900
H1221       H  0.86539040  0.27073789  0.77782332     0.07900
H1222       H  0.76898890  0.45897587  0.90086508     0.07800
H1223       H  0.73060698  0.41221295  0.92393395     0.07800
H1224       H  0.71942650  0.44296207  0.87037713     0.04600
C1225       C  0.47829830  0.22335458  0.10048987    -0.21200
C1226       C  0.49652511  0.24064423  0.05793772    -0.07700
C1227       C  0.54330711  0.22643868  0.04603821     0.13100
C1228       C  0.56775936  0.19326430  0.07392933    -0.21200
C1229       C  0.55131973  0.17605466  0.11761309    -0.07800
C1230       C  0.50503111  0.19359314  0.13115228     0.13100
C1231       C  0.48273391  0.18574758  0.17842461    -0.24600
H1232       H  0.44386334  0.23525046  0.11226464     0.14400
H1233       H  0.60203749  0.18355935  0.06064511     0.14400
C1234       C  0.57065998  0.24507988  0.00430783    -0.24500
H1235       H  0.46811313  0.22038765  0.19196867     0.04600
H1236       H  0.50826424  0.17185937  0.20443970     0.07900
H1237       H  0.45239533  0.16126607  0.17574560     0.07900
H1238       H  0.55295372  0.27388039  0.98377189     0.07800
H1239       H  0.57907129  0.21456964  0.98088100     0.07800
H1240       H  0.60436238  0.26042777  0.01604001     0.04600
C1241       C  0.49079023  0.55857511  0.67946596    -0.21200
C1242       C  0.51193976  0.53503916  0.71749711    -0.07700
C1243       C  0.56182282  0.53183540  0.71802713     0.13100
C1244       C  0.58727409  0.56360071  0.68991259    -0.21200
C1245       C  0.56518495  0.59590366  0.65794073    -0.07800
C1246       C  0.51658778  0.58658769  0.64800909     0.13100
C1247       C  0.48937291  0.60105676  0.60490801    -0.24600
H1248       H  0.45356385  0.55368838  0.67305314     0.14400
H1249       H  0.62508915  0.56324712  0.69355096     0.14400
C1250       C  0.58988031  0.49438089  0.74535038    -0.24500
H1251       H  0.47277321  0.56849180  0.59065621     0.04600
H1252       H  0.51017323  0.61553905  0.57597904     0.07900
H1253       H  0.46073542  0.62743282  0.61386234     0.07900
H1254       H  0.56791455  0.46521478  0.75993136     0.07800
H1255       H  0.60933942  0.51209674  0.77337329     0.07800
H1256       H  0.61593728  0.47618457  0.72215891     0.04600
C1257       C  0.11053317  0.23342784  0.67020778    -0.21200
C1258       C  0.11207755  0.18303418  0.67876837    -0.07700
C1259       C  0.13565045  0.16704641  0.72005512     0.13100
C1260       C  0.16359278  0.19954628  0.74388584    -0.21200
C1261       C  0.16890388  0.24783997  0.72923907    -0.07800
C1262       C  0.14304060  0.26413830  0.68982011     0.13100
C1263       C  0.15428418  0.30868910  0.66119644    -0.24600
H1264       H  0.08780815  0.24920673  0.64412414     0.14400
H1265       H  0.18349286  0.18621694  0.77340877     0.14400
C1266       C  0.13453342  0.11594124  0.73908416    -0.24500
H1267       H  0.15030643  0.30162599  0.62376627     0.04600
H1268       H  0.19164341  0.31904594  0.66484171     0.07900
H1269       H  0.12924049  0.33878680  0.66961004     0.07900
H1270       H  0.14740548  0.08970701  0.71319173     0.07800
H1271       H  0.09835343  0.10757985  0.75107930     0.07800
H1272       H  0.15760335  0.11069836  0.76967654     0.04600
C1273       C  0.98175540  0.10482925  0.71476745    -0.21200
C1274       C  0.99080616  0.05463873  0.72022777    -0.07700
C1275       C  0.03515905  0.03644818  0.70387924     0.13100
C1276       C  0.06349014  0.06604025  0.67646841    -0.21200
C1277       C  0.05472682  0.11631187  0.67022032    -0.07800
C1278       C  0.01385000  0.13608472  0.69293084     0.13100
C1279       C  0.00443924  0.18993219  0.69766271    -0.24600
H1280       H  0.95114264  0.12077992  0.73178274     0.14400
H1281       H  0.09591606  0.04944671  0.66425364     0.14400
C1282       C  0.05746060  0.98840490  0.71854664    -0.24500
H1283       H  0.03143587  0.20564398  0.72010312     0.04600
H1284       H  0.96975723  0.19777710  0.71441950     0.07900
H1285       H  0.00394705  0.20916160  0.66396970     0.07900
H1286       H  0.04484898  0.95903976  0.69645832     0.07800
H1287       H  0.05157434  0.98101259  0.75588347     0.07800
H1288       H  0.09648346  0.98814871  0.71416564     0.04600
C1289       C  0.67756146  0.73218388  0.68872315    -0.21200
C1290       C  0.66455968  0.73060587  0.73553185    -0.07700
C1291       C  0.62612708  0.70099559  0.74826438     0.13100
C1292       C  0.60970067  0.66731204  0.71675097    -0.21200
C1293       C  0.62245771  0.66838071  0.66930727    -0.07800
C1294       C  0.65570592  0.70435958  0.65526113     0.13100
C1295       C  0.66848824  0.71637008  0.60563023    -0.24600
H1296       H  0.70442293  0.75737188  0.67790188     0.14400
H1297       H  0.58172659  0.64449360  0.72898064     0.14400
C1298       C  0.59484097  0.70980173  0.78987949    -0.24500
H1299       H  0.63879224  0.73644715  0.58905488     0.04600
H1300       H  0.67886471  0.68410733  0.58576602     0.07900
H1301       H  0.69898635  0.74084718  0.60308525     0.07900
H1302       H  0.59710573  0.74744568  0.80216706     0.07800
H1303       H  0.60308401  0.68284165  0.81761239     0.07800
H1304       H  0.55711868  0.70591561  0.78057211     0.04600
C1305       C  0.69709154  0.11194026  0.07032612    -0.21200
C1306       C  0.68170526  0.07110242  0.04726520    -0.07700
C1307       C  0.63332836  0.05918581  0.05183292     0.13100
C1308       C  0.60561513  0.08147750  0.08594210    -0.21200
C1309       C  0.62237341  0.11918930  0.11332051    -0.07800
C1310       C  0.66761649  0.13813241  0.10029365     0.13100
C1311       C  0.68372865  0.18899265  0.10940913    -0.24600
H1312       H  0.73117481  0.12666311  0.06192787     0.14400
H1313       H  0.56941223  0.07037727  0.08959403     0.14400
C1314       C  0.60860810  0.02404061  0.02124332    -0.24500
H1315       H  0.69914170  0.20495908  0.07736576     0.04600
H1316       H  0.71145838  0.18845276  0.13626918     0.07900
H1317       H  0.65458992  0.21435034  0.11809445     0.07900
H1318       H  0.59705478  0.99241816  0.04219000     0.07800
H1319       H  0.63035838  0.01103151  0.99192761     0.07800
H1320       H  0.57691881  0.04218958  0.00591376     0.04600
loop_ 
_geom_bond_atom_site_label_1 
_geom_bond_atom_site_label_2 
_geom_bond_distance 
_geom_bond_site_symmetry_2 
_ccdc_geom_bond_type 
C1            C2   1.546       .  S
C1            C7   1.521   1_545  S
C1            C5   1.531   1_554  S
C1         C1306   1.528       .  S
C2            H9   1.084       .  S
C2            C3   1.365       .  D
C3            C4   1.550   1_544  S
C3          C670   1.481       .  S
C4            C8   1.543   1_556  S
C4            C6   1.545   1_565  S
C4           H10   1.111       .  S
C5           H11   1.087       .  S
C5            C6   1.367       .  D
C6          C406   1.475       .  S
C7           H12   1.088       .  S
C7            C8   1.354       .  D
C8          C113   1.456       .  S
C13          C14   1.535       .  S
C13          C19   1.529       .  S
C13          C17   1.539       .  S
C13        C1290   1.540       .  S
C14          H21   1.086       .  S
C14          C15   1.368       .  D
C15          C16   1.552       .  S
C15         C424   1.496       .  S
C16          C20   1.547       .  S
C16          C18   1.550       .  S
C16          H22   1.110       .  S
C17          H23   1.087       .  S
C17          C18   1.368       .  D
C18         C274   1.490       .  S
C19          H24   1.078       .  S
C19          C20   1.363       .  D
C20         C109   1.474       .  S
C25          C26   1.530       .  S
C25          C31   1.540       .  S
C25          C29   1.542   1_545  S
C25        C1274   1.536       .  S
C26          H33   1.087   1_655  S
C26          C27   1.357       .  D
C27          C28   1.550   1_545  S
C27         C688   1.483       .  S
C28          C32   1.562   1_565  S
C28          C30   1.548       .  S
C28          H34   1.111       .  S
C29          H35   1.077       .  S
C29          C30   1.360       .  D
C30         C277   1.486       .  S
C31          H36   1.086       .  S
C31          C32   1.367       .  D
C32         C410   1.492       .  S
C37          C38   1.543       .  S
C37          C43   1.526       .  S
C37          C41   1.533       .  S
C37        C1261   1.534       .  S
C38          H45   1.086       .  S
C38          C39   1.371       .  D
C39          C40   1.539       .  S
C39          C52   1.482       .  S
C40          C44   1.540       .  S
C40          C42   1.545       .  S
C40          H46   1.111       .  S
C41          H47   1.086       .  S
C41          C42   1.364       .  D
C42         C727   1.474       .  S
C43          H48   1.078       .  S
C43          C44   1.356       .  D
C44         C248   1.463       .  S
O49         Ni55   1.968       .  S
O49          C70   1.290       .  A
O50         Ni73   1.887       .  S
O50          C59   1.255       .  A
O51         Ni55   1.895       .  S
O51         Ni73   1.907       .  S
O51         Ni67   1.926       .  S
O51          H74   0.966       .  S
C52          O69   1.282       .  A
C52          O61   1.276       .  A
O53         Ni72   1.926       .  S
O53          C59   1.270       .  A
O54         Ni72   1.921       .  S
O54          C56   1.270       .  A
Ni55         O58   1.963       .  S
Ni55         O60   1.958       .  S
C56          C82   1.476       .  S
C56          O66   1.263       .  A
O57         Ni73   1.909       .  S
O57          C63   1.270       .  A
O58          C63   1.287       .  A
C59         C562   1.464       .  S
O60          C62   1.283       .  A
O61         Ni72   1.923       .  S
C62         C331   1.513       .  S
C62          O68   1.266       .  A
C63         C434   1.489       .  S
H64          O65   0.967       .  S
O65         Ni73   1.925       .  S
O65         Ni67   1.914       .  S
O65         Ni72   1.910       .  S
O66         Ni67   1.915       .  S
Ni67         O71   1.912       .  S
Ni67         O69   1.942       .  S
O68         Ni73   1.938       .  S
C70          C89   1.506       .  S
C70          O71   1.265       .  A
C75          C76   1.542       .  S
C75          C81   1.525       .  S
C75          C79   1.536       .  S
C75        C1242   1.523       .  S
C76          H83   1.086       .  S
C76          C77   1.361       .  D
C77          C78   1.547       .  S
C77         C252   1.478       .  S
C78          C82   1.551       .  S
C78          C80   1.551       .  S
C78          H84   1.111       .  S
C79          H85   1.086       .  S
C79          C80   1.363       .  D
C80         C530   1.477       .  S
C81          H86   1.087       .  S
C81          C82   1.359       .  D
C87          C88   1.536   1_554  S
C87          C93   1.540       .  S
C87          C91   1.543       .  S
C87        C1226   1.538       .  S
C88          H95   1.087       .  S
C88          C89   1.358       .  D
C89          C90   1.570       .  S
C90          C94   1.561   1_556  S
C90          C92   1.564       .  S
C90          H96   1.111       .  S
C91          H97   1.087       .  S
C91          C92   1.364   1_554  D
C92         C529   1.505       .  S
C93          H98   1.082       .  S
C93          C94   1.365       .  D
C94         C730   1.493       .  S
O99        Ni105   1.910       .  S
O99         C120   1.267       .  A
O100       Ni123   1.911       .  S
O100        C109   1.264       .  A
O101       Ni105   1.894       .  S
O101       Ni123   1.906   1_554  S
O101       Ni117   1.923       .  S
O101        H124   0.967       .  S
C102        C143   1.467       .  S
C102        O119   1.278       .  A
C102        O111   1.277   1_554  A
O103       Ni122   1.919       .  S
O103        C109   1.271       .  A
O104       Ni122   1.905       .  S
O104        C106   1.267   1_556  A
Ni105       O108   1.912       .  S
Ni105       O110   1.897       .  S
C106        C346   1.473       .  S
C106        O116   1.271       .  A
O107       Ni123   1.915       .  S
O107        C113   1.276   1_556  A
O108        C113   1.278       .  A
O110        C112   1.264       .  A
O111       Ni122   1.909       .  S
C112        C165   1.467       .  S
C112        O118   1.267   1_554  A
H114        O115   0.966       .  S
O115       Ni123   1.923       .  S
O115       Ni117   1.911   1_556  S
O115       Ni122   1.892       .  S
O116       Ni117   1.933       .  S
Ni117       O121   1.922       .  S
Ni117       O119   1.933       .  S
O118       Ni123   1.929       .  S
C120        C497   1.475       .  S
C120        O121   1.268       .  A
C125       C1162   1.559       .  S
C125       C1178   1.563       .  S
C125       C1194   1.576       .  S
C125       C1210   1.583       .  S
C126        C127   1.546   1_655  S
C126        C132   1.533       .  S
C126        C130   1.537       .  S
C126       C1197   1.537       .  S
C127        H134   1.084       .  S
C127        C128   1.361       .  D
C128        C129   1.532       .  S
C128        C241   1.469       .  S
C129        C133   1.541   1_455  S
C129        C131   1.556   1_455  S
C129        H135   1.111       .  S
C130        H136   1.086       .  S
C130        C131   1.366       .  D
C131        C271   1.478       .  S
C132        H137   1.087       .  S
C132        C133   1.360       .  D
C133        C620   1.472       .  S
C138        C139   1.544       .  S
C138        C144   1.535       .  S
C138        C142   1.530       .  S
C138       C1181   1.527       .  S
C139        H146   1.086   1_554  S
C139        C140   1.362       .  D
C140        C141   1.559       .  S
C140        C537   1.489       .  S
C141        C145   1.549       .  S
C141        C143   1.540       .  S
C141        H147   1.111       .  S
C142        H148   1.082       .  S
C142        C143   1.354       .  D
C144        H149   1.086       .  S
C144        C145   1.367       .  D
C145        C372   1.481       .  S
C150        C151   1.534       .  S
C150        C156   1.530   1_545  S
C150        C154   1.538       .  S
C150       C1149   1.522       .  S
C151        H158   1.080       .  S
C151        C152   1.345       .  D
C152        C153   1.547   1_545  S
C152        C588   1.462       .  S
C153        C157   1.546       .  S
C153        C155   1.548   1_565  S
C153        H159   1.111       .  S
C154        H160   1.086       .  S
C154        C155   1.365       .  D
C155        C746   1.483       .  S
C156        H161   1.087       .  S
C156        C157   1.362       .  D
C157        C219   1.471       .  S
C162       C1130   1.571       .  S
C162       C1146   1.558       .  S
C162       C1258   1.563       .  S
C162       C1277   1.574       .  S
C163        C164   1.527       .  S
C163        C169   1.541       .  S
C163        C167   1.539   1_554  S
C163       C1114   1.526       .  S
C164        H171   1.087       .  S
C164        C165   1.358       .  D
C165        C166   1.547   1_554  S
C166        C170   1.549   1_556  S
C166        C168   1.539       .  S
C166        H172   1.111       .  S
C167        H173   1.085       .  S
C167        C168   1.362       .  D
C168        C278   1.471       .  S
C169        H174   1.086       .  S
C169        C170   1.362       .  D
C170        C674   1.475       .  S
C175        C176   1.548       .  S
C175        C181   1.547   1_554  S
C175        C179   1.528       .  S
C175       C1098   1.544       .  S
C176        H183   1.085       .  S
C176        C177   1.356   1_554  D
C177        C178   1.534       .  S
C177        C731   1.478       .  S
C178        C182   1.544       .  S
C178        C180   1.533       .  S
C178        H184   1.111       .  S
C179        H185   1.087       .  S
C179        C180   1.364   1_554  D
C180        C526   1.463       .  S
C181        H186   1.084       .  S
C181        C182   1.373       .  D
C182        C251   1.475       .  S
C187        C188   1.541       .  S
C187        C193   1.535       .  S
C187        C191   1.524       .  S
C187       C1082   1.534       .  S
C188        H195   1.084       .  S
C188        C189   1.374       .  D
C189        C190   1.553       .  S
C189        C233   1.491       .  S
C190        C194   1.557       .  S
C190        C192   1.550       .  S
C190        H196   1.110       .  S
C191        H197   1.087       .  S
C191        C192   1.361       .  D
C192        C764   1.486       .  S
C193        H198   1.086       .  S
C193        C194   1.363       .  D
C194        C312   1.491       .  S
C199       C1069   1.565       .  S
C199       C1085   1.593       .  S
C199       C1101   1.595       .  S
C199       C1117   1.569       .  S
C200        C201   1.530       .  S
C200        C206   1.536       .  S
C200        C204   1.533       .  S
C200       C1050   1.519       .  S
C201        H208   1.087       .  S
C201        C202   1.356       .  D
C202        C203   1.544       .  S
C202        C570   1.467       .  S
C203        C207   1.538       .  S
C203        C205   1.541       .  S
C203        H209   1.111       .  S
C204        H210   1.087       .  S
C204        C205   1.355       .  D
C205        C215   1.466       .  S
C206        H211   1.082       .  S
C206        C207   1.368       .  D
C207        C316   1.457       .  S
O212       Ni218   1.932       .  S
O212        C233   1.274       .  A
O213       Ni236   1.925       .  S
O213        C222   1.268       .  A
O214       Ni218   1.902       .  S
O214       Ni236   1.916       .  S
O214       Ni230   1.918       .  S
O214        H237   0.966       .  S
C215        O232   1.276       .  A
C215        O224   1.276       .  A
O216       Ni235   1.920       .  S
O216        C222   1.270       .  A
O217       Ni235   1.908       .  S
O217        C219   1.268       .  A
Ni218       O221   1.920       .  S
Ni218       O223   1.918       .  S
C219        O229   1.271       .  A
O220       Ni236   1.922       .  S
O220        C226   1.279       .  A
O221        C226   1.277       .  A
C222        C297   1.484       .  S
O223        C225   1.272       .  A
O224       Ni235   1.913       .  S
C225        C506   1.480       .  S
C225        O231   1.266       .  A
C226        C485   1.465       .  S
H227        O228   0.966       .  S
O228       Ni236   1.927       .  S
O228       Ni230   1.917       .  S
O228       Ni235   1.899       .  S
O229       Ni230   1.931       .  S
Ni230       O234   1.924       .  S
Ni230       O232   1.928       .  S
O231       Ni236   1.928       .  S
C233        O234   1.270       .  A
O238       Ni244   1.934       .  S
O238        C259   1.276       .  A
O239       Ni262   1.901       .  S
O239        C248   1.260       .  A
O240       Ni244   1.898       .  S
O240       Ni262   1.913       .  S
O240       Ni256   1.922       .  S
O240        H263   0.967       .  S
C241        O258   1.275       .  A
C241        O250   1.280       .  A
O242       Ni261   1.913       .  S
O242        C248   1.270       .  A
O243       Ni261   1.920       .  S
O243        C245   1.267       .  A
Ni244       O247   1.939       .  S
Ni244       O249   1.919       .  S
C245        C509   1.485       .  S
C245        O255   1.267       .  A
O246       Ni262   1.914       .  S
O246        C252   1.271       .  A
O247        C252   1.281       .  A
O249        C251   1.269       .  A
O250       Ni261   1.928       .  S
C251        O257   1.267       .  A
H253        O254   0.967       .  S
O254       Ni262   1.909       .  S
O254       Ni256   1.900       .  S
O254       Ni261   1.897       .  S
O255       Ni256   1.935       .  S
Ni256       O260   1.901       .  S
Ni256       O258   1.917       .  S
O257       Ni262   1.923       .  S
C259        C295   1.477       .  S
C259        O260   1.260       .  A
O264       Ni270   1.932       .  S
O264        C285   1.274       .  A
O265       Ni288   1.926       .  S
O265        C274   1.267       .  A
O266       Ni270   1.913   1_655  S
O266       Ni288   1.924       .  S
O266       Ni282   1.920       .  S
O266        H289   0.967       .  S
C267        C482   1.462       .  S
C267        O284   1.276   1_655  A
C267        O276   1.275       .  A
O268       Ni287   1.924       .  S
O268        C274   1.271       .  A
O269       Ni287   1.910       .  S
O269        C271   1.269       .  A
Ni270       O273   1.920   1_455  S
Ni270       O275   1.925   1_455  S
C271        O281   1.272       .  A
O272       Ni288   1.926       .  S
O272        C278   1.277       .  A
O273        C278   1.276       .  A
O275        C277   1.273       .  A
O276       Ni287   1.911       .  S
C277        O283   1.267       .  A
H279        O280   0.966       .  S
O280       Ni288   1.923       .  S
O280       Ni282   1.923       .  S
O280       Ni287   1.907       .  S
O281       Ni282   1.938       .  S
Ni282       O286   1.925   1_655  S
Ni282       O284   1.924   1_655  S
O283       Ni288   1.931       .  S
C285        C292   1.492       .  S
C285        O286   1.270       .  A
C290        C291   1.548       .  S
C290        C296   1.530       .  S
C290        C294   1.518       .  S
C290       C1034   1.532       .  S
C291        H298   1.083       .  S
C291        C292   1.376       .  D
C292        C293   1.554       .  S
C293        C297   1.548       .  S
C293        C295   1.551       .  S
C293        H299   1.110       .  S
C294        H300   1.088       .  S
C294        C295   1.351       .  D
C296        H301   1.085       .  S
C296        C297   1.365       .  D
O302       Ni308   1.923       .  S
O302        C323   1.275       .  A
O303       Ni326   1.906       .  S
O303        C312   1.262       .  A
O304       Ni308   1.906       .  S
O304       Ni326   1.908       .  S
O304       Ni320   1.913       .  S
O304        H327   0.966       .  S
C305        C343   1.472       .  S
C305        O322   1.271       .  A
C305        O314   1.276       .  A
O306       Ni325   1.946       .  S
O306        C312   1.278       .  A
O307       Ni325   1.919       .  S
O307        C309   1.273       .  A
Ni308       O311   1.907       .  S
Ni308       O313   1.934       .  S
C309        C549   1.479       .  S
C309        O319   1.267       .  A
O310       Ni326   1.916       .  S
O310        C316   1.273       .  A
O311        C316   1.274       .  A
O313        C315   1.275       .  A
O314       Ni325   1.936       .  S
C315        C595   1.499       .  S
C315        O321   1.271       .  A
H317        O318   0.965       .  S
O318       Ni326   1.930       .  S
O318       Ni320   1.936       .  S
O318       Ni325   1.919       .  S
O319       Ni320   1.933       .  S
Ni320       O324   1.921       .  S
Ni320       O322   1.913       .  S
O321       Ni326   1.942       .  S
C323        C499   1.490       .  S
C323        O324   1.265       .  A
C328        C989   1.561       .  S
C328       C1002   1.570       .  S
C328       C1021   1.573       .  S
C328       C1037   1.565       .  S
C329        C330   1.534       .  S
C329        C335   1.539       .  S
C329        C333   1.551       .  S
C329       C1018   1.548       .  S
C330        H337   1.087       .  S
C330        C331   1.359       .  D
C331        C332   1.576       .  S
C332        C336   1.561       .  S
C332        C334   1.573       .  S
C332        H338   1.110       .  S
C333        H339   1.080       .  S
C333        C334   1.359       .  D
C334        C580   1.515       .  S
C335        H340   1.085   1_545  S
C335        C336   1.368       .  D
C336        C416   1.497       .  S
C341        C342   1.536       .  S
C341        C347   1.538       .  S
C341        C345   1.545   1_554  S
C341       C1005   1.540   1_554  S
C342        H349   1.086       .  S
C342        C343   1.361       .  D
C343        C344   1.542       .  S
C344        C348   1.545       .  S
C344        C346   1.544       .  S
C344        H350   1.111       .  S
C345        H351   1.081       .  S
C345        C346   1.362   1_556  D
C347        H352   1.086   1_554  S
C347        C348   1.362       .  D
C348        C523   1.477       .  S
C353        C354   1.541       .  S
C353        C359   1.532       .  S
C353        C357   1.527       .  S
C353        C970   1.522       .  S
C354        H361   1.084       .  S
C354        C355   1.373       .  D
C355        C356   1.560       .  S
C355        C378   1.492       .  S
C356        C360   1.541       .  S
C356        C358   1.556       .  S
C356        H362   1.111       .  S
C357        H363   1.088       .  S
C357        C358   1.351       .  D
C358        C448   1.488       .  S
C359        H364   1.085       .  S
C359        C360   1.353       .  D
C360        C627   1.463       .  S
O365       Ni371   1.958       .  S
O365        C386   1.281       .  A
O366       Ni389   1.922       .  S
O366        C375   1.264       .  A
O367       Ni371   1.912       .  S
O367       Ni389   1.924       .  S
O367       Ni383   1.911       .  S
O367        H390   0.966       .  S
C368        C547   1.480       .  S
C368        O385   1.268       .  A
C368        O377   1.280       .  A
O369       Ni388   1.945       .  S
O369        C375   1.278       .  A
O370       Ni388   1.906       .  S
O370        C372   1.268       .  A
Ni371       O374   1.948       .  S
Ni371       O376   1.932       .  S
C372        O382   1.277       .  A
O373       Ni389   1.915       .  S
O373        C379   1.273       .  A
O374        C379   1.283       .  A
C375        C396   1.500       .  S
O376        C378   1.273       .  A
O377       Ni388   1.939       .  S
C378        O384   1.267       .  A
C379        C610   1.481       .  S
H380        O381   0.966       .  S
O381       Ni389   1.927       .  S
O381       Ni383   1.930       .  S
O381       Ni388   1.908       .  S
O382       Ni383   1.949       .  S
Ni383       O387   1.916       .  S
Ni383       O385   1.916       .  S
O384       Ni389   1.932       .  S
C386        C494   1.500       .  S
C386        O387   1.267       .  A
C391        C392   1.518       .  S
C391        C397   1.539       .  S
C391        C395   1.535       .  S
C391        C954   1.529       .  S
C392        H399   1.087       .  S
C392        C393   1.359       .  D
C393        C394   1.552       .  S
C393        C462   1.480       .  S
C394        C398   1.565       .  S
C394        C396   1.563       .  S
C394        H400   1.110       .  S
C395        H401   1.084       .  S
C395        C396   1.357       .  D
C397        H402   1.085       .  S
C397        C398   1.371       .  D
C398        C779   1.494       .  S
O403       Ni409   1.939       .  S
O403        C424   1.278       .  A
O404       Ni427   1.908       .  S
O404        C413   1.263       .  A
O405       Ni409   1.906   1_545  S
O405       Ni427   1.919       .  S
O405       Ni421   1.933   1_545  S
O405        H428   0.966   1_545  S
C406        O423   1.283   1_545  A
C406        O415   1.277       .  A
O407       Ni426   1.926       .  S
O407        C413   1.272       .  A
O408       Ni426   1.918       .  S
O408        C410   1.270       .  A
Ni409       O412   1.940       .  S
Ni409       O414   1.929       .  S
C410        O420   1.275   1_545  A
O411       Ni427   1.921       .  S
O411        C417   1.272       .  A
O412        C417   1.280   1_565  A
C413        C436   1.477       .  S
O414        C416   1.273   1_565  A
O415       Ni426   1.918       .  S
C416        O422   1.273       .  A
C417        C470   1.481       .  S
H418        O419   0.966       .  S
O419       Ni427   1.920       .  S
O419       Ni421   1.913   1_545  S
O419       Ni426   1.904       .  S
O420       Ni421   1.950       .  S
Ni421       O425   1.929       .  S
Ni421       O423   1.940       .  S
O422       Ni427   1.945       .  S
C424        O425   1.273       .  A
C429        C430   1.535       .  S
C429        C435   1.533       .  S
C429        C433   1.550       .  S
C429       C1213   1.542       .  S
C430        H437   1.086       .  S
C430        C431   1.366       .  D
C431        C432   1.560       .  S
C431        C451   1.502       .  S
C432        C436   1.545       .  S
C432        C434   1.550       .  S
C432        H438   1.111       .  S
C433        H439   1.083       .  S
C433        C434   1.368       .  D
C435        H440   1.087       .  S
C435        C436   1.362       .  D
O441       Ni447   1.913       .  S
O441        C462   1.268       .  A
O442       Ni465   1.919       .  S
O442        C451   1.269       .  A
O443       Ni447   1.903       .  S
O443       Ni465   1.916       .  S
O443       Ni459   1.920       .  S
O443        H466   0.966       .  S
C444        C648   1.460       .  S
C444        O461   1.271       .  A
C444        O453   1.280       .  A
O445       Ni464   1.955       .  S
O445        C451   1.282       .  A
O446       Ni464   1.929       .  S
O446        C448   1.276       .  A
Ni447       O450   1.913       .  S
Ni447       O452   1.916       .  S
C448        O458   1.266       .  A
O449       Ni465   1.935       .  S
O449        C455   1.280       .  A
O450        C455   1.276       .  A
O452        C454   1.269       .  A
O453       Ni464   1.937       .  S
C454        C475   1.484       .  S
C454        O460   1.270       .  A
C455        C557   1.473       .  S
H456        O457   0.966       .  S
O457       Ni465   1.919       .  S
O457       Ni459   1.923       .  S
O457       Ni464   1.904       .  S
O458       Ni459   1.931       .  S
Ni459       O463   1.924       .  S
Ni459       O461   1.898       .  S
O460       Ni465   1.937       .  S
C462        O463   1.263       .  A
C467        C893   1.563       .  S
C467        C906   1.559       .  S
C467        C922   1.579       .  S
C467        C938   1.571       .  S
C468        C469   1.533       .  S
C468        C474   1.551       .  S
C468        C472   1.526       .  S
C468        C925   1.530       .  S
C469        H476   1.087       .  S
C469        C470   1.357       .  D
C470        C471   1.542       .  S
C471        C475   1.549       .  S
C471        C473   1.543       .  S
C471        H477   1.111       .  S
C472        H478   1.085       .  S
C472        C473   1.355       .  D
C473        C577   1.462       .  S
C474        H479   1.083       .  S
C474        C475   1.372       .  D
C480        C481   1.523       .  S
C480        C486   1.549       .  S
C480        C484   1.528   1_655  S
C480        C909   1.529       .  S
C481        H488   1.087       .  S
C481        C482   1.357       .  D
C482        C483   1.542   1_655  S
C483        C487   1.551   1_455  S
C483        C485   1.540       .  S
C483        H489   1.111       .  S
C484        H490   1.087       .  S
C484        C485   1.360       .  D
C486        H491   1.080       .  S
C486        C487   1.363       .  D
C487        C624   1.476       .  S
C492        C493   1.542       .  S
C492        C498   1.535       .  S
C492        C496   1.526       .  S
C492        C941   1.535       .  S
C493        H500   1.086       .  S
C493        C494   1.369       .  D
C494        C495   1.560       .  S
C495        C499   1.557       .  S
C495        C497   1.538       .  S
C495        H501   1.110       .  S
C496        H502   1.087       .  S
C496        C497   1.363       .  D
C498        H503   1.081       .  S
C498        C499   1.364       .  D
C504        C505   1.544       .  S
C504        C510   1.533       .  S
C504        C508   1.546       .  S
C504        C874   1.539       .  S
C505        H512   1.081       .  S
C505        C506   1.351       .  D
C506        C507   1.546       .  S
C507        C511   1.539       .  S
C507        C509   1.541       .  S
C507        H513   1.111       .  S
C508        H514   1.085       .  S
C508        C509   1.374       .  D
C510        H515   1.087       .  S
C510        C511   1.358       .  D
C511        C638   1.464       .  S
O516       Ni522   1.971   1_554  S
O516        C537   1.287       .  A
O517       Ni540   1.903       .  S
O517        C526   1.265       .  A
O518       Ni522   1.904       .  S
O518       Ni540   1.912       .  S
O518       Ni534   1.919   1_556  S
O518        H541   0.966       .  S
C519        C544   1.465       .  S
C519        O536   1.275       .  A
C519        O528   1.275       .  A
O520       Ni539   1.909       .  S
O520        C526   1.266   1_554  A
O521       Ni539   1.914       .  S
O521        C523   1.267       .  A
Ni522       O525   1.953       .  S
Ni522       O527   1.939       .  S
C523        O533   1.268       .  A
O524       Ni540   1.904       .  S
O524        C530   1.272       .  A
O525        C530   1.284       .  A
O527        C529   1.278       .  A
O528       Ni539   1.910       .  S
C529        O535   1.274       .  A
H531        O532   0.965       .  S
O532       Ni540   1.918   1_554  S
O532       Ni534   1.900       .  S
O532       Ni539   1.907       .  S
O533       Ni534   1.929       .  S
Ni534       O538   1.886       .  S
Ni534       O536   1.927       .  S
O535       Ni540   1.949       .  S
C537        O538   1.261       .  A
C542        C543   1.531       .  S
C542        C548   1.529       .  S
C542        C546   1.540       .  S
C542        C858   1.523       .  S
C543        H550   1.087       .  S
C543        C544   1.359       .  D
C544        C545   1.540       .  S
C545        C549   1.562       .  S
C545        C547   1.549       .  S
C545        H551   1.111       .  S
C546        H552   1.082       .  S
C546        C547   1.351       .  D
C548        H553   1.087       .  S
C548        C549   1.363       .  D
C554        C826   1.561       .  S
C554        C842   1.577       .  S
C554        C861   1.561       .  S
C554        C877   1.571       .  S
C555        C556   1.526       .  S
C555        C561   1.531       .  S
C555        C559   1.528       .  S
C555        C829   1.510       .  S
C556        H563   1.087       .  S
C556        C557   1.362       .  D
C557        C558   1.541       .  S
C558        C562   1.547       .  S
C558        C560   1.542       .  S
C558        H564   1.111       .  S
C559        H565   1.081       .  S
C559        C560   1.354       .  D
C560        C581   1.457       .  S
C561        H566   1.087       .  S
C561        C562   1.359       .  D
O567       Ni573   1.938       .  S
O567        C588   1.281       .  A
O568       Ni591   1.876       .  S
O568        C577   1.260       .  A
O569       Ni573   1.893       .  S
O569       Ni591   1.893       .  S
O569       Ni585   1.914   1_545  S
O569        H592   0.966       .  S
C570        O587   1.268       .  A
C570        O579   1.282       .  A
O571       Ni590   1.937   1_545  S
O571        C577   1.278       .  A
O572       Ni590   1.939       .  S
O572        C574   1.273       .  A
Ni573       O576   1.923       .  S
Ni573       O578   1.932       .  S
C574        C600   1.510   1_565  S
C574        O584   1.272   1_565  A
O575       Ni591   1.906       .  S
O575        C581   1.273       .  A
O576        C581   1.280       .  A
O578        C580   1.275       .  A
O579       Ni590   1.939       .  S
C580        O586   1.276       .  A
H582        O583   0.966       .  S
O583       Ni591   1.922   1_565  S
O583       Ni585   1.898       .  S
O583       Ni590   1.906       .  S
O584       Ni585   1.947   1_545  S
Ni585       O589   1.871       .  S
Ni585       O587   1.901       .  S
O586       Ni591   1.960       .  S
C588        O589   1.253   1_545  A
C593        C594   1.528   1_545  S
C593        C599   1.556       .  S
C593        C597   1.537       .  S
C593        C813   1.541       .  S
C594        H601   1.088       .  S
C594        C595   1.356       .  D
C595        C596   1.568       .  S
C596        C600   1.564   1_565  S
C596        C598   1.575   1_565  S
C596        H602   1.111       .  S
C597        H603   1.086       .  S
C597        C598   1.363       .  D
C598        C750   1.512       .  S
C599        H604   1.085       .  S
C599        C600   1.373       .  D
C605        C606   1.533       .  S
C605        C611   1.541   1_655  S
C605        C609   1.532       .  S
C605       C1066   1.527   1_655  S
C606        H613   1.087   1_655  S
C606        C607   1.365       .  D
C607        C608   1.556       .  S
C607        C782   1.485       .  S
C608        C612   1.545       .  S
C608        C610   1.549       .  S
C608        H614   1.111       .  S
C609        H615   1.086       .  S
C609        C610   1.355       .  D
C611        H616   1.085       .  S
C611        C612   1.361   1_455  D
C612        C631   1.465       .  S
O617       Ni623   1.924       .  S
O617        C638   1.274       .  A
O618       Ni641   1.896       .  S
O618        C627   1.258       .  A
O619       Ni623   1.906       .  S
O619       Ni641   1.899   1_455  S
O619       Ni635   1.931       .  S
O619        H642   0.965       .  S
C620        O637   1.282   1_655  A
C620        O629   1.278       .  A
O621       Ni640   1.917       .  S
O621        C627   1.270       .  A
O622       Ni640   1.913       .  S
O622        C624   1.268       .  A
Ni623       O626   1.934       .  S
Ni623       O628   1.920       .  S
C624        O634   1.265   1_655  A
O625       Ni641   1.902       .  S
O625        C631   1.271       .  A
O626        C631   1.279   1_455  A
O628        C630   1.270   1_455  A
O629       Ni640   1.919       .  S
C630        C645   1.477       .  S
C630        O636   1.268       .  A
H632        O633   0.967       .  S
O633       Ni641   1.923       .  S
O633       Ni635   1.896   1_655  S
O633       Ni640   1.899       .  S
O634       Ni635   1.922       .  S
Ni635       O639   1.889       .  S
Ni635       O637   1.936       .  S
O636       Ni641   1.921       .  S
C638        O639   1.262       .  A
C643        C644   1.549   1_655  S
C643        C649   1.523       .  S
C643        C647   1.528       .  S
C643       C1133   1.514   1_655  S
C644        H651   1.086       .  S
C644        C645   1.366   1_455  D
C645        C646   1.549       .  S
C646        C650   1.549       .  S
C646        C648   1.540       .  S
C646        H652   1.111       .  S
C647        H653   1.086       .  S
C647        C648   1.355       .  D
C649        H654   1.088   1_655  S
C649        C650   1.358       .  D
C650        C783   1.473       .  S
C655        C656   1.520       .  S
C655        C661   1.539       .  S
C655        C659   1.543       .  S
C655        C986   1.529   1_554  S
C656        H663   1.087   1_554  S
C656        C657   1.353       .  D
C657        C658   1.541       .  S
C657        C720   1.461       .  S
C658        C662   1.546       .  S
C658        C660   1.547       .  S
C658        H664   1.111       .  S
C659        H665   1.083   1_545  S
C659        C660   1.372       .  D
C660        C757   1.475       .  S
C661        H666   1.086   1_544  S
C661        C662   1.361       .  D
C662        C681   1.480       .  S
O667       Ni673   1.947       .  S
O667        C688   1.278   1_455  A
O668       Ni691   1.901       .  S
O668        C677   1.261       .  A
O669       Ni673   1.915       .  S
O669       Ni691   1.920   1_556  S
O669       Ni685   1.928   1_455  S
O669        H692   0.967   1_545  S
C670        O687   1.274   1_554  A
C670        O679   1.279       .  A
O671       Ni690   1.937   1_565  S
O671        C677   1.275   1_665  A
O672       Ni690   1.917   1_565  S
O672        C674   1.270       .  A
Ni673       O676   1.939       .  S
Ni673       O678   1.916       .  S
C674        O684   1.267   1_554  A
O675       Ni691   1.915       .  S
O675        C681   1.271       .  A
O676        C681   1.278   1_556  A
C677        C700   1.479       .  S
O678        C680   1.271   1_556  A
O679       Ni690   1.935       .  S
C680        C707   1.469       .  S
C680        O686   1.265       .  A
H682        O683   0.966       .  S
O683       Ni691   1.920   1_655  S
O683       Ni685   1.910   1_554  S
O683       Ni690   1.909       .  S
O684       Ni685   1.922   1_565  S
Ni685       O689   1.896       .  S
Ni685       O687   1.924       .  S
O686       Ni691   1.917       .  S
C688        O689   1.260       .  A
C693        C694   1.547   1_655  S
C693        C699   1.529       .  S
C693        C697   1.536       .  S
C693        C890   1.535   1_545  S
C694        H701   1.081   1_545  S
C694        C695   1.365       .  D
C695        C696   1.564       .  S
C695        C756   1.498       .  S
C696        C700   1.547       .  S
C696        C698   1.561       .  S
C696        H702   1.111       .  S
C697        H703   1.084       .  S
C697        C698   1.360   1_655  D
C698        C776   1.496   1_455  S
C699        H704   1.087   1_545  S
C699        C700   1.357   1_655  D
C705        C706   1.532       .  S
C705        C711   1.546   1_655  S
C705        C709   1.530   1_556  S
C705       C1165   1.528       .  S
C706        H713   1.082       .  S
C706        C707   1.358   1_656  D
C707        C708   1.551       .  S
C708        C712   1.549       .  S
C708        C710   1.543       .  S
C708        H714   1.111       .  S
C709        H715   1.087       .  S
C709        C710   1.358   1_655  D
C710        C772   1.481       .  S
C711        H716   1.087       .  S
C711        C712   1.368   1_556  D
C712        C724   1.478       .  S
O717       Ni723   1.946       .  S
O717        C738   1.278       .  A
O718       Ni741   1.912       .  S
O718        C727   1.265       .  A
O719       Ni723   1.902       .  S
O719       Ni741   1.921   1_554  S
O719       Ni735   1.918       .  S
O719        H742   0.968       .  S
C720        O737   1.274       .  A
C720        O729   1.277   1_554  A
O721       Ni740   1.917       .  S
O721        C727   1.270       .  A
O722       Ni740   1.908       .  S
O722        C724   1.267   1_556  A
Ni723       O726   1.934       .  S
Ni723       O728   1.922       .  S
C724        O734   1.271       .  A
O725       Ni741   1.922       .  S
O725        C731   1.274       .  A
O726        C731   1.280   1_554  A
O728        C730   1.272       .  A
O729       Ni740   1.911       .  S
C730        O736   1.271   1_554  A
H732        O733   0.965       .  S
O733       Ni741   1.917       .  S
O733       Ni735   1.910   1_556  S
O733       Ni740   1.899       .  S
O734       Ni735   1.938       .  S
Ni735       O739   1.910       .  S
Ni735       O737   1.921       .  S
O736       Ni741   1.944       .  S
C738        C797   1.489       .  S
C738        O739   1.266       .  A
O743       Ni749   1.920       .  S
O743        C764   1.273       .  A
O744       Ni767   1.916       .  S
O744        C753   1.266       .  A
O745       Ni749   1.904       .  S
O745       Ni767   1.909   1_565  S
O745       Ni761   1.926       .  S
O745        H768   0.967       .  S
C746        O763   1.275   1_545  A
C746        O755   1.281       .  A
O747       Ni766   1.955       .  S
O747        C753   1.284       .  A
O748       Ni766   1.942       .  S
O748        C750   1.279       .  A
Ni749       O752   1.919       .  S
Ni749       O754   1.930       .  S
C750        O760   1.277   1_545  A
O751       Ni767   1.940       .  S
O751        C757   1.283       .  A
O752        C757   1.277   1_565  A
C753        C802   1.499       .  S
O754        C756   1.272   1_565  A
O755       Ni766   1.943       .  S
C756        O762   1.270       .  A
H758        O759   0.966       .  S
O759       Ni767   1.934       .  S
O759       Ni761   1.924   1_545  S
O759       Ni766   1.903       .  S
O760       Ni761   1.958       .  S
Ni761       O765   1.925       .  S
Ni761       O763   1.923       .  S
O762       Ni767   1.943       .  S
C764        O765   1.267       .  A
O769       Ni775   1.918       .  S
O769        C790   1.272       .  A
O770       Ni793   1.907       .  S
O770        C779   1.264       .  A
O771       Ni775   1.907       .  S
O771       Ni793   1.912   1_455  S
O771       Ni787   1.930       .  S
O771        H794   0.967       .  S
C772        O789   1.276       .  A
C772        O781   1.278   1_455  A
O773       Ni792   1.952       .  S
O773        C779   1.281       .  A
O774       Ni792   1.940       .  S
O774        C776   1.278       .  A
Ni775       O778   1.920       .  S
Ni775       O780   1.918       .  S
C776        O786   1.267   1_655  A
O777       Ni793   1.934       .  S
O777        C783   1.279       .  A
O778        C783   1.277   1_455  A
O780        C782   1.270   1_455  A
O781       Ni792   1.937       .  S
C782        O788   1.268       .  A
H784        O785   0.967       .  S
O785       Ni793   1.927       .  S
O785       Ni787   1.929   1_655  S
O785       Ni792   1.914       .  S
O786       Ni787   1.934       .  S
Ni787       O791   1.926       .  S
Ni787       O789   1.923       .  S
O788       Ni793   1.932       .  S
C790        C800   1.488       .  S
C790        O791   1.264       .  A
C795        C796   1.532       .  S
C795        C801   1.532       .  S
C795        C799   1.537       .  S
C795        C845   1.538       .  S
C796        H803   1.087       .  S
C796        C797   1.364       .  D
C797        C798   1.554       .  S
C798        C802   1.567       .  S
C798        C800   1.553       .  S
C798        H804   1.110       .  S
C799        H805   1.079       .  S
C799        C800   1.360       .  D
C801        H806   1.085       .  S
C801        C802   1.365       .  D
C807        C810   1.596       .  S
C807        C957   1.587       .  S
C807       C1229   1.591       .  S
C807       C1309   1.570       .  S
C808        C973   1.558       .  S
C808       C1053   1.556       .  S
C808       C1245   1.569       .  S
C808       C1293   1.570       .  S
C809        C810   1.412       .  A
C809        C814   1.412       .  A
C809        H816   1.082       .  S
C810        C811   1.430       .  A
C811        C818   1.512       .  S
C811        C812   1.404       .  A
C812        C813   1.405       .  A
C812        H817   1.084       .  S
C813        C814   1.430       .  A
C814        C815   1.509       .  S
C815        H819   1.111       .  S
C815        H820   1.110       .  S
C815        H821   1.105       .  S
C818        H822   1.111       .  S
C818        H823   1.105       .  S
C818        H824   1.112       .  S
C825        C826   1.417       .  A
C825        C830   1.387       .  A
C825        H832   1.078       .  S
C826        C827   1.434       .  A
C827        C834   1.509       .  S
C827        C828   1.392       .  A
C828        C829   1.399       .  A
C828        H833   1.084       .  S
C829        C830   1.410       .  A
C830        C831   1.511       .  S
C831        H835   1.112       .  S
C831        H836   1.110       .  S
C831        H837   1.109       .  S
C834        H838   1.104       .  S
C834        H839   1.100       .  S
C834        H840   1.111       .  S
C841        C842   1.419       .  A
C841        C846   1.393       .  A
C841        H848   1.074       .  S
C842        C843   1.428       .  A
C843        C850   1.516       .  S
C843        C844   1.408       .  A
C844        C845   1.415       .  A
C844        H849   1.073       .  S
C845        C846   1.416       .  A
C846        C847   1.518       .  S
C847        H851   1.111       .  S
C847        H852   1.106       .  S
C847        H853   1.105       .  S
C850        H854   1.106       .  S
C850        H855   1.105       .  S
C850        H856   1.111       .  S
C857        C858   1.401       .  A
C857        C862   1.390       .  A
C857        H864   1.074       .  S
C858        C859   1.418       .  A
C859        C866   1.512       .  S
C859        C860   1.399       .  A
C860        C861   1.414       .  A
C860        H865   1.080       .  S
C861        C862   1.438       .  A
C862        C863   1.522       .  S
C863        H867   1.112       .  S
C863        H868   1.093       .  S
C863        H869   1.110       .  S
C866        H870   1.103       .  S
C866        H871   1.110       .  S
C866        H872   1.111       .  S
C873        C874   1.402       .  A
C873        C878   1.403       .  A
C873        H880   1.075       .  S
C874        C875   1.412       .  A
C875        C882   1.513       .  S
C875        C876   1.401       .  A
C876        C877   1.424       .  A
C876        H881   1.083       .  S
C877        C878   1.441       .  A
C878        C879   1.515       .  S
C879        H883   1.111       .  S
C879        H884   1.106       .  S
C879        H885   1.102       .  S
C882        H886   1.105       .  S
C882        H887   1.109       .  S
C882        H888   1.111       .  S
C889        C890   1.407       .  A
C889        C894   1.406       .  A
C889        H896   1.075   1_655  S
C890        C891   1.424       .  A
C891        C898   1.520   1_565  S
C891        C892   1.393       .  A
C892        C893   1.414       .  A
C892        H897   1.081       .  S
C893        C894   1.438       .  A
C894        C895   1.513       .  S
C895        H899   1.111   1_655  S
C895        H900   1.094       .  S
C895        H901   1.111   1_655  S
C898        H902   1.105       .  S
C898        H903   1.105       .  S
C898        H904   1.111       .  S
C905        C906   1.410       .  A
C905        C910   1.398       .  A
C905        H912   1.077       .  S
C906        C907   1.438       .  A
C907        C914   1.518       .  S
C907        C908   1.398       .  A
C908        C909   1.402       .  A
C908        H913   1.075       .  S
C909        C910   1.424       .  A
C910        C911   1.517       .  S
C911        H915   1.111       .  S
C911        H916   1.105   1_655  S
C911        H917   1.106       .  S
C914        H918   1.110       .  S
C914        H919   1.097       .  S
C914        H920   1.111       .  S
C921        C922   1.410       .  A
C921        C926   1.395       .  A
C921        H928   1.076       .  S
C922        C923   1.440       .  A
C923        C930   1.516   1_565  S
C923        C924   1.405   1_565  A
C924        C925   1.401       .  A
C924        H929   1.079       .  S
C925        C926   1.426   1_545  A
C926        C927   1.520       .  S
C927        H931   1.111       .  S
C927        H932   1.104       .  S
C927        H933   1.105       .  S
C930        H934   1.097   1_545  S
C930        H935   1.112       .  S
C930        H936   1.110       .  S
C937        C938   1.418       .  A
C937        C942   1.402       .  A
C937        H944   1.081       .  S
C938        C939   1.432       .  A
C939        C946   1.508       .  S
C939        C940   1.402       .  A
C940        C941   1.403       .  A
C940        H945   1.084       .  S
C941        C942   1.418       .  A
C942        C943   1.508       .  S
C943        H947   1.111       .  S
C943        H948   1.110       .  S
C943        H949   1.108       .  S
C946        H950   1.101       .  S
C946        H951   1.106       .  S
C946        H952   1.111       .  S
C953        C954   1.400       .  A
C953        C958   1.402       .  A
C953        H960   1.080       .  S
C954        C955   1.403       .  A
C955        C962   1.510       .  S
C955        C956   1.395       .  A
C956        C957   1.420       .  A
C956        H961   1.060       .  S
C957        C958   1.447       .  A
C958        C959   1.512       .  S
C959        H963   1.111       .  S
C959        H964   1.094       .  S
C959        H965   1.103       .  S
C962        H966   1.105       .  S
C962        H967   1.111       .  S
C962        H968   1.111       .  S
C969        C970   1.414       .  A
C969        C974   1.393       .  A
C969        H976   1.079       .  S
C970        C971   1.413       .  A
C971        C978   1.511       .  S
C971        C972   1.396       .  A
C972        C973   1.417       .  A
C972        H977   1.075       .  S
C973        C974   1.424       .  A
C974        C975   1.517       .  S
C975        H979   1.111       .  S
C975        H980   1.097       .  S
C975        H981   1.110       .  S
C978        H982   1.111       .  S
C978        H983   1.109       .  S
C978        H984   1.107       .  S
C985        C986   1.407   1_564  A
C985        C990   1.407   1_554  A
C985        H992   1.079       .  S
C986        C987   1.427       .  A
C987        C994   1.521       .  S
C987        C988   1.393   1_545  A
C988        C989   1.407       .  A
C988        H993   1.074       .  S
C989        C990   1.432       .  A
C990        C991   1.511       .  S
C991        H995   1.111   1_556  S
C991        H996   1.100       .  S
C991        H997   1.110   1_556  S
C994        H998   1.105       .  S
C994        H999   1.104       .  S
C994       H1000   1.111       .  S
C1001      C1002   1.414       .  A
C1001      C1006   1.400       .  A
C1001      H1008   1.076       .  S
C1002      C1003   1.434       .  A
C1003      C1010   1.515       .  S
C1003      C1004   1.405       .  A
C1004      C1005   1.408       .  A
C1004      H1009   1.076       .  S
C1005      C1006   1.422       .  A
C1006      C1007   1.517   1_556  S
C1007      H1011   1.111       .  S
C1007      H1012   1.104       .  S
C1007      H1013   1.106       .  S
C1010      H1014   1.111       .  S
C1010      H1015   1.098       .  S
C1010      H1016   1.111       .  S
C1017      C1018   1.406   1_565  A
C1017      C1022   1.400       .  A
C1017      H1024   1.073       .  S
C1018      C1019   1.425   1_545  A
C1019      C1026   1.514   1_565  S
C1019      C1020   1.408       .  A
C1020      C1021   1.414       .  A
C1020      H1025   1.079       .  S
C1021      C1022   1.439       .  A
C1022      C1023   1.521       .  S
C1023      H1027   1.112       .  S
C1023      H1028   1.095       .  S
C1023      H1029   1.110       .  S
C1026      H1030   1.106       .  S
C1026      H1031   1.105   1_545  S
C1026      H1032   1.111       .  S
C1033      C1034   1.403       .  A
C1033      C1038   1.404       .  A
C1033      H1040   1.079       .  S
C1034      C1035   1.429       .  A
C1035      C1042   1.518       .  S
C1035      C1036   1.397       .  A
C1036      C1037   1.407       .  A
C1036      H1041   1.077       .  S
C1037      C1038   1.438       .  A
C1038      C1039   1.514       .  S
C1039      H1043   1.111       .  S
C1039      H1044   1.110       .  S
C1039      H1045   1.095       .  S
C1042      H1046   1.105       .  S
C1042      H1047   1.106       .  S
C1042      H1048   1.111       .  S
C1049      C1050   1.405       .  A
C1049      C1054   1.393       .  A
C1049      H1056   1.082       .  S
C1050      C1051   1.414       .  A
C1051      C1058   1.511       .  S
C1051      C1052   1.395       .  A
C1052      C1053   1.420       .  A
C1052      H1057   1.078       .  S
C1053      C1054   1.429       .  A
C1054      C1055   1.513       .  S
C1055      H1059   1.111       .  S
C1055      H1060   1.106       .  S
C1055      H1061   1.103       .  S
C1058      H1062   1.108       .  S
C1058      H1063   1.110       .  S
C1058      H1064   1.111       .  S
C1065      C1066   1.403       .  A
C1065      C1070   1.400       .  A
C1065      H1072   1.082       .  S
C1066      C1067   1.416   1_455  A
C1067      C1074   1.512       .  S
C1067      C1068   1.395   1_655  A
C1068      C1069   1.417       .  A
C1068      H1073   1.077   1_455  S
C1069      C1070   1.439       .  A
C1070      C1071   1.518       .  S
C1071      H1075   1.110       .  S
C1071      H1076   1.110       .  S
C1071      H1077   1.104       .  S
C1074      H1078   1.111       .  S
C1074      H1079   1.106       .  S
C1074      H1080   1.111       .  S
C1081      C1082   1.409       .  A
C1081      C1086   1.403       .  A
C1081      H1088   1.084       .  S
C1082      C1083   1.415       .  A
C1083      C1090   1.508       .  S
C1083      C1084   1.404       .  A
C1084      C1085   1.427       .  A
C1084      H1089   1.083       .  S
C1085      C1086   1.423       .  A
C1086      C1087   1.504       .  S
C1087      H1091   1.112       .  S
C1087      H1092   1.105       .  S
C1087      H1093   1.109       .  S
C1090      H1094   1.106       .  S
C1090      H1095   1.110       .  S
C1090      H1096   1.111       .  S
C1097      C1098   1.401       .  A
C1097      C1102   1.394       .  A
C1097      H1104   1.082       .  S
C1098      C1099   1.413       .  A
C1099      C1106   1.507   1_554  S
C1099      C1100   1.412       .  A
C1100      C1101   1.423       .  A
C1100      H1105   1.071       .  S
C1101      C1102   1.441       .  A
C1102      C1103   1.520       .  S
C1103      H1107   1.113       .  S
C1103      H1108   1.098       .  S
C1103      H1109   1.105       .  S
C1106      H1110   1.110       .  S
C1106      H1111   1.106       .  S
C1106      H1112   1.111   1_556  S
C1113      C1114   1.406   1_455  A
C1113      C1118   1.400       .  A
C1113      H1120   1.082   1_455  S
C1114      C1115   1.416       .  A
C1115      C1122   1.512       .  S
C1115      C1116   1.397   1_655  A
C1116      C1117   1.416       .  A
C1116      H1121   1.077       .  S
C1117      C1118   1.431       .  A
C1118      C1119   1.510       .  S
C1119      H1123   1.111       .  S
C1119      H1124   1.098       .  S
C1119      H1125   1.110       .  S
C1122      H1126   1.105       .  S
C1122      H1127   1.110       .  S
C1122      H1128   1.111       .  S
C1129      C1130   1.415       .  A
C1129      C1134   1.393   1_455  A
C1129      H1136   1.080       .  S
C1130      C1131   1.439       .  A
C1131      C1138   1.512       .  S
C1131      C1132   1.396       .  A
C1132      C1133   1.396       .  A
C1132      H1137   1.083       .  S
C1133      C1134   1.415   1_455  A
C1134      C1135   1.510       .  S
C1135      H1139   1.111       .  S
C1135      H1140   1.107       .  S
C1135      H1141   1.110       .  S
C1138      H1142   1.107       .  S
C1138      H1143   1.095       .  S
C1138      H1144   1.111       .  S
C1145      C1146   1.425       .  A
C1145      C1150   1.394       .  A
C1145      H1152   1.081       .  S
C1146      C1147   1.430       .  A
C1147      C1154   1.516       .  S
C1147      C1148   1.387       .  A
C1148      C1149   1.405       .  A
C1148      H1153   1.076       .  S
C1149      C1150   1.410       .  A
C1150      C1151   1.514       .  S
C1151      H1155   1.111       .  S
C1151      H1156   1.108   1_545  S
C1151      H1157   1.105       .  S
C1154      H1158   1.110       .  S
C1154      H1159   1.091       .  S
C1154      H1160   1.112       .  S
C1161      C1162   1.413       .  A
C1161      C1166   1.401       .  A
C1161      H1168   1.079       .  S
C1162      C1163   1.439       .  A
C1163      C1170   1.514       .  S
C1163      C1164   1.397       .  A
C1164      C1165   1.399       .  A
C1164      H1169   1.083       .  S
C1165      C1166   1.422       .  A
C1166      C1167   1.510       .  S
C1167      H1171   1.112       .  S
C1167      H1172   1.108       .  S
C1167      H1173   1.110       .  S
C1170      H1174   1.106       .  S
C1170      H1175   1.103       .  S
C1170      H1176   1.111       .  S
C1177      C1178   1.416       .  A
C1177      C1182   1.397       .  A
C1177      H1184   1.079       .  S
C1178      C1179   1.442       .  A
C1179      C1186   1.511       .  S
C1179      C1180   1.401   1_556  A
C1180      C1181   1.395       .  A
C1180      H1185   1.084       .  S
C1181      C1182   1.412   1_554  A
C1182      C1183   1.509   1_556  S
C1183      H1187   1.111       .  S
C1183      H1188   1.109       .  S
C1183      H1189   1.110   1_554  S
C1186      H1190   1.104       .  S
C1186      H1191   1.111   1_556  S
C1186      H1192   1.106       .  S
C1193      C1194   1.415       .  A
C1193      C1198   1.403       .  A
C1193      H1200   1.078       .  S
C1194      C1195   1.443       .  A
C1195      C1202   1.522       .  S
C1195      C1196   1.400       .  A
C1196      C1197   1.403       .  A
C1196      H1201   1.079       .  S
C1197      C1198   1.419       .  A
C1198      C1199   1.510       .  S
C1199      H1203   1.110       .  S
C1199      H1204   1.111       .  S
C1199      H1205   1.104       .  S
C1202      H1206   1.093       .  S
C1202      H1207   1.110       .  S
C1202      H1208   1.112       .  S
C1209      C1210   1.413       .  A
C1209      C1214   1.399       .  A
C1209      H1216   1.074       .  S
C1210      C1211   1.444       .  A
C1211      C1218   1.516       .  S
C1211      C1212   1.411       .  A
C1212      C1213   1.405       .  A
C1212      H1217   1.079       .  S
C1213      C1214   1.420       .  A
C1214      C1215   1.513       .  S
C1215      H1219   1.111       .  S
C1215      H1220   1.102       .  S
C1215      H1221   1.111       .  S
C1218      H1222   1.099       .  S
C1218      H1223   1.109       .  S
C1218      H1224   1.112       .  S
C1225      C1226   1.413       .  A
C1225      C1230   1.414       .  A
C1225      H1232   1.077       .  S
C1226      C1227   1.415       .  A
C1227      C1234   1.520       .  S
C1227      C1228   1.390       .  A
C1228      C1229   1.423       .  A
C1228      H1233   1.071       .  S
C1229      C1230   1.441       .  A
C1230      C1231   1.517       .  S
C1231      H1235   1.111       .  S
C1231      H1236   1.107       .  S
C1231      H1237   1.110       .  S
C1234      H1238   1.101   1_554  S
C1234      H1239   1.111   1_554  S
C1234      H1240   1.111       .  S
C1241      C1242   1.402       .  A
C1241      C1246   1.399       .  A
C1241      H1248   1.084       .  S
C1242      C1243   1.414       .  A
C1243      C1250   1.509       .  S
C1243      C1244   1.397       .  A
C1244      C1245   1.416       .  A
C1244      H1249   1.077       .  S
C1245      C1246   1.438       .  A
C1246      C1247   1.516       .  S
C1247      H1251   1.112       .  S
C1247      H1252   1.096       .  S
C1247      H1253   1.110       .  S
C1250      H1254   1.106       .  S
C1250      H1255   1.110       .  S
C1250      H1256   1.111       .  S
C1257      C1258   1.412       .  A
C1257      C1262   1.396       .  A
C1257      H1264   1.077       .  S
C1258      C1259   1.433       .  A
C1259      C1266   1.510       .  S
C1259      C1260   1.403       .  A
C1260      C1261   1.406       .  A
C1260      H1265   1.083       .  S
C1261      C1262   1.423       .  A
C1262      C1263   1.513       .  S
C1263      H1267   1.111       .  S
C1263      H1268   1.109       .  S
C1263      H1269   1.110       .  S
C1266      H1270   1.105       .  S
C1266      H1271   1.108       .  S
C1266      H1272   1.111       .  S
C1273      C1274   1.413       .  A
C1273      C1278   1.408   1_655  A
C1273      H1280   1.082       .  S
C1274      C1275   1.423   1_655  A
C1275      C1282   1.515   1_545  S
C1275      C1276   1.394       .  A
C1276      C1277   1.416       .  A
C1276      H1281   1.077       .  S
C1277      C1278   1.429       .  A
C1278      C1279   1.515       .  S
C1279      H1283   1.108       .  S
C1279      H1284   1.111   1_455  S
C1279      H1285   1.104       .  S
C1282      H1286   1.108       .  S
C1282      H1287   1.109       .  S
C1282      H1288   1.111       .  S
C1289      C1290   1.402       .  A
C1289      C1294   1.402       .  A
C1289      H1296   1.084       .  S
C1290      C1291   1.420       .  A
C1291      C1298   1.509       .  S
C1291      C1292   1.403       .  A
C1292      C1293   1.417       .  A
C1292      H1297   1.078       .  S
C1293      C1294   1.437       .  A
C1294      C1295   1.513       .  S
C1295      H1299   1.106       .  S
C1295      H1300   1.102       .  S
C1295      H1301   1.111       .  S
C1298      H1302   1.109       .  S
C1298      H1303   1.110       .  S
C1298      H1304   1.112       .  S
C1305      C1306   1.400       .  A
C1305      C1310   1.398       .  A
C1305      H1312   1.081       .  S
C1306      C1307   1.421       .  A
C1307      C1314   1.512       .  S
C1307      C1308   1.398       .  A
C1308      C1309   1.412       .  A
C1308      H1313   1.081       .  S
C1309      C1310   1.441       .  A
C1310      C1311   1.516       .  S
C1311      H1315   1.112       .  S
C1311      H1316   1.109       .  S
C1311      H1317   1.101       .  S
C1314      H1318   1.111   1_545  S
C1314      H1319   1.105   1_554  S
C1314      H1320   1.111       .  S
