geometry optimzed in LAMMPS
_audit_creation_date              2020-12-01 
_audit_creation_method            'lammps2cif' 
_symmetry_space_group_name_H-M    'P1' 
_symmetry_Int_Tables_number       1 
_symmetry_cell_setting            triclinic 
loop_ 
_symmetry_equiv_pos_as_xyz 
  x,y,z 
_cell_length_a                    68.79801213 
_cell_length_b                    69.73382373211136 
_cell_length_c                    70.128931958139 
_cell_angle_alpha                 91.71708113217169 
_cell_angle_beta                  89.79491829981153 
_cell_angle_gamma                 88.03569297260248 
loop_ 
_atom_site_label 
_atom_site_type_symbol 
_atom_site_fract_x 
_atom_site_fract_y 
_atom_site_fract_z 
_atom_site_charge 
Zr1        Zr  0.81377667  0.78166789  0.81047588     2.17500
O2          O  0.80675290  0.74956890  0.79844310    -0.52100
O3          O  0.82904831  0.77398895  0.84005772    -0.75300
O4          O  0.84728063  0.76851981  0.80350019    -0.82100
O5          O  0.76740580  0.79103051  0.84001355    -0.83800
O6          O  0.86425132  0.79235153  0.79035972    -0.79500
O7          O  0.79324186  0.77009604  0.83666676    -0.91100
O8          O  0.83381743  0.80302155  0.85459745    -0.77100
O9          O  0.83710272  0.80591196  0.81348754    -0.86600
O10         O  0.80032868  0.80674824  0.83105951    -0.86200
O11         O  0.81815940  0.79336202  0.77866649    -0.73000
O12         O  0.78424740  0.79193340  0.79415418    -0.85100
Zr13       Zr  0.79957766  0.85322220  0.79145211     2.26400
Zr14       Zr  0.84164984  0.81775091  0.78249035     2.06300
Zr15       Zr  0.77046359  0.81557694  0.81596580     2.10000
Zr16       Zr  0.82405553  0.82983531  0.83488830     1.78800
O17         O  0.74651767  0.79757487  0.79814196    -0.93900
O18         O  0.85888223  0.83259142  0.83995754    -0.41700
O19         O  0.79338072  0.84047697  0.82199674    -0.78400
O20         O  0.82994245  0.84255506  0.80438452    -0.97100
O21         O  0.81273594  0.83055175  0.76882059    -0.90400
O22         O  0.77575161  0.82971949  0.78615860    -0.93200
C23         C  0.83449491  0.78455054  0.85411053     1.00500
C24         C  0.77802040  0.77684820  0.84584312     1.13500
C25         C  0.86315548  0.77565822  0.79723087     1.04300
O26         O  0.87287278  0.83176916  0.78953153    -0.95400
O27         O  0.84643843  0.84448996  0.76231505    -0.91100
O28         O  0.82222610  0.86622614  0.76915319    -0.84300
C29         C  0.83758235  0.86064511  0.75988707     1.10900
O30         O  0.78537175  0.77735554  0.74556290    -0.97300
Zr31       Zr  0.78937660  0.80722108  0.76377685     1.88900
O32         O  0.78431292  0.86304881  0.76324950    -0.74000
O33         O  0.85275815  0.80235780  0.75253013    -0.53300
O34         O  0.80953170  0.80358861  0.73517521    -0.97900
O35         O  0.75578671  0.79999274  0.75623856    -0.55100
O36         O  0.77745240  0.83597524  0.74590731    -0.74500
C37         C  0.77736801  0.85447250  0.74869018     0.97800
O38         O  0.80609406  0.88466733  0.80569692    -0.63300
O39         O  0.74283022  0.82441524  0.83664941    -0.58100
O40         O  0.76848870  0.86807195  0.80033253    -0.94800
O41         O  0.75133608  0.84544866  0.81494468    -0.93200
O42         O  0.81183689  0.83856235  0.86670695    -0.93600
O43         O  0.82615126  0.86334835  0.84537410    -0.92400
C44         C  0.75330633  0.86252292  0.80905022     1.16700
H45         H  0.79865039  0.80373755  0.84416426     0.32600
H46         H  0.83894086  0.85290764  0.80516754     0.43500
H47         H  0.76377213  0.83518642  0.78125336     0.37000
H48         H  0.82332168  0.78294892  0.77060932     0.33500
H49         H  0.86190105  0.84572137  0.83620341     0.25300
H50         H  0.86678774  0.80496598  0.75192212     0.31200
H51         H  0.81466912  0.81647180  0.73317367     0.37100
H52         H  0.82358134  0.83861448  0.87483169     0.31600
H53         H  0.73793634  0.81248459  0.84188438     0.30500
H54         H  0.73595913  0.80717757  0.79562729     0.32100
H55         H  0.75489303  0.80092637  0.74220652     0.31100
H56         H  0.83441898  0.86938275  0.83583584     0.35100
H57         H  0.79860720  0.89390014  0.79788421     0.27800
H58         H  0.81347153  0.74088966  0.80739228     0.32100
H59         H  0.78945555  0.76719970  0.75440337     0.34900
H60         H  0.74805874  0.83176107  0.84766892     0.27500
H61         H  0.79919055  0.88501915  0.81812746     0.40400
H62         H  0.88048844  0.83001878  0.77755854     0.30500
H63         H  0.86043213  0.83277242  0.85399734     0.38100
H64         H  0.74797422  0.81124974  0.76119922     0.29900
H65         H  0.85241290  0.78836279  0.75444399     0.30000
H66         H  0.81434427  0.74801198  0.78643992     0.30200
Zr67       Zr  0.80553355  0.92448180  0.95093543     2.17500
O68         O  0.79265621  0.93815473  0.98093692    -0.52100
O69         O  0.82874138  0.90084189  0.96306489    -0.75300
O70         O  0.78572562  0.89883968  0.96473439    -0.82100
O71         O  0.84441514  0.96203560  0.94365703    -0.83800
O72         O  0.76771113  0.88610078  0.94072937    -0.79500
O73         O  0.83123065  0.94402191  0.96655797    -0.91100
O74         O  0.84414427  0.88589540  0.93764062    -0.77100
O75         O  0.80269453  0.89812412  0.92883274    -0.86600
O76         O  0.83255476  0.92524914  0.92958601    -0.86200
O77         O  0.77483170  0.92925541  0.93454674    -0.73000
O78         O  0.80239525  0.95460501  0.93479174    -0.85100
Zr79       Zr  0.79919634  0.93169510  0.87654346     2.26400
Zr80       Zr  0.77285818  0.90290123  0.91182162     2.06300
Zr81       Zr  0.82974966  0.95499834  0.91347031     2.10000
Zr82       Zr  0.83038307  0.89803690  0.90863891     1.78800
O83         O  0.82910564  0.98957536  0.91920870    -0.93900
O84         O  0.82372562  0.86390643  0.90780870    -0.41700
O85         O  0.82959865  0.92768844  0.89212481    -0.78400
O86         O  0.80071494  0.90144431  0.89134497    -0.97100
O87         O  0.77079494  0.93220590  0.89584880    -0.90400
O88         O  0.79983208  0.95908843  0.89735439    -0.93200
C89         C  0.84124622  0.88877852  0.95553999     1.00500
C90         C  0.84347702  0.95642130  0.96082015     1.13500
C91         C  0.77348677  0.88658861  0.95808010     1.04300
O92         O  0.77057040  0.86907329  0.90279711    -0.95400
O93         O  0.75682699  0.90033841  0.88077333    -0.91100
O94         O  0.77753367  0.91163218  0.85915980    -0.84300
C95         C  0.76183926  0.90354996  0.86351725     1.10900
O96         O  0.76155926  0.97583789  0.94665954    -0.97300
Zr97       Zr  0.77229309  0.95872541  0.91751014     1.88900
O98         O  0.77555233  0.95273864  0.86306703    -0.74000
O99         O  0.73806502  0.90781645  0.91741439    -0.53300
O100        O  0.73809799  0.95387649  0.92429977    -0.97900
O101        O  0.77478723  0.99355784  0.91860277    -0.55100
O102        O  0.75799500  0.96853101  0.88662618    -0.74500
C103        C  0.76203401  0.96441058  0.86891344     0.97800
O104        O  0.81471613  0.91924203  0.84718806    -0.63300
O105        O  0.86453522  0.95170137  0.90693414    -0.58100
O106        O  0.81711600  0.95606561  0.86174253    -0.94800
O107        O  0.83534766  0.97121792  0.88363442    -0.93200
O108        O  0.86559040  0.89846376  0.90518948    -0.93600
O109        O  0.84242981  0.88344748  0.87873451    -0.92400
C110        C  0.82864886  0.96922529  0.86664068     1.16700
H111        H  0.84473308  0.92442311  0.93633120     0.32600
H112        H  0.79982491  0.89106975  0.88201460     0.43500
H113        H  0.79912302  0.97094610  0.89053941     0.37000
H114        H  0.76429166  0.92890913  0.94369155     0.33500
H115        H  0.83669683  0.85731153  0.90710313     0.25300
H116        H  0.73261119  0.89495758  0.91531297     0.31200
H117        H  0.73101377  0.95929161  0.91333626     0.37100
H118        H  0.86945602  0.91007676  0.91247668     0.31600
H119        H  0.86912486  0.96500152  0.90755626     0.30500
H120        H  0.81652361  0.99249475  0.92573828     0.32100
H121        H  0.76181541  0.99852799  0.91460605     0.31100
H122        H  0.84381980  0.89433581  0.87015385     0.35100
H123        H  0.82871286  0.92170951  0.84881762     0.27800
H124        H  0.79386173  0.92760506  0.99004393     0.32100
H125        H  0.76815735  0.96885054  0.95702713     0.34900
H126        H  0.87018268  0.94568237  0.91836155     0.27500
H127        H  0.81402913  0.90511899  0.84781752     0.40400
H128        H  0.78249300  0.86287394  0.90799097     0.30500
H129        H  0.81886058  0.86127192  0.92074333     0.38100
H130        H  0.78352410  0.99652104  0.90794501     0.29900
H131        H  0.73662866  0.91066528  0.93124283     0.30000
H132        H  0.77850165  0.93984241  0.97875711     0.30200
Zr133      Zr  0.96201043  0.93086156  0.80864442     2.17500
O134        O  0.99402814  0.94437032  0.80580788    -0.52100
O135        O  0.96887543  0.90560234  0.83151177    -0.75300
O136        O  0.96803188  0.94402319  0.84125412    -0.82100
O137        O  0.96169218  0.89139157  0.77031829    -0.83800
O138        O  0.94350707  0.96554756  0.84885185    -0.79500
O139        O  0.98169855  0.90484540  0.79220280    -0.91100
O140        O  0.93973281  0.89317915  0.83903164    -0.77100
O141        O  0.93460576  0.93577875  0.82898381    -0.86600
O142        O  0.94023653  0.90598378  0.80087502    -0.86200
O143        O  0.94836507  0.96255109  0.80116125    -0.73000
O144        O  0.95266985  0.93593956  0.77568662    -0.85100
Zr145      Zr  0.89000582  0.94356166  0.78589151     2.26400
Zr146      Zr  0.92139354  0.96698461  0.82261878     2.06300
Zr147      Zr  0.93153076  0.91035870  0.76835017     2.10000
Zr148      Zr  0.91380697  0.91007956  0.82260104     1.78800
O149        O  0.94652124  0.91583170  0.73755456    -0.93900
O150        O  0.90852075  0.91292452  0.85693732    -0.41700
O151        O  0.90445782  0.91246559  0.79007882    -0.78400
O152        O  0.89933237  0.94134837  0.81835244    -0.97100
O153        O  0.91002431  0.97018570  0.79106001    -0.90400
O154        O  0.91549859  0.94035769  0.76300915    -0.93200
C155        C  0.95828558  0.89384136  0.84037755     1.00500
C156        C  0.97786109  0.89180965  0.77938151     1.13500
C157        C  0.95885434  0.95578200  0.85303302     1.04300
O158        O  0.90651698  0.97821911  0.85266394    -0.95400
O159        O  0.89035826  0.98416104  0.82251832    -0.91100
O160        O  0.87110238  0.96963651  0.80080206    -0.84300
C161        C  0.87412254  0.98241916  0.81387677     1.10900
O162        O  0.96752682  0.97670111  0.75870702    -0.97300
Zr163      Zr  0.93583109  0.96625714  0.76893753     1.88900
O164        O  0.87998422  0.96407347  0.76157155    -0.74000
O165        O  0.93485310  0.99864362  0.81984116    -0.53300
O166        O  0.93876413  0.00050859  0.77563759    -0.97900
O167        O  0.94298768  0.96125431  0.73499422    -0.55100
O168        O  0.90651087  0.97997860  0.75201294    -0.74500
C169        C  0.88809125  0.97641957  0.75156747     0.97800
O170        O  0.85806713  0.93213855  0.79429350    -0.63300
O171        O  0.92553948  0.87699612  0.75970739    -0.58100
O172        O  0.87865125  0.92361285  0.76026583    -0.94800
O173        O  0.90356875  0.90493074  0.74810294    -0.93200
O174        O  0.90727579  0.87650658  0.81544837    -0.93600
O175        O  0.87949876  0.90467625  0.82875213    -0.92400
C176        C  0.88574489  0.91103073  0.74827414     1.16700
H177        H  0.94608139  0.89338043  0.80241517     0.32600
H178        H  0.88822287  0.94338924  0.82666252     0.43500
H179        H  0.91055710  0.94084003  0.75014985     0.37000
H180        H  0.95794641  0.97211317  0.80381829     0.33500
H181        H  0.89750039  0.92234472  0.85859682     0.25300
H182        H  0.92405304  0.00771003  0.82371259     0.31200
H183        H  0.92519047  0.00568657  0.77647092     0.37100
H184        H  0.90835787  0.87508360  0.80138739     0.31600
H185        H  0.93435678  0.87385113  0.74877405     0.30500
H186        H  0.95962612  0.92046937  0.74060195     0.32100
H187        H  0.94218996  0.97426197  0.72970661     0.31100
H188        H  0.87917467  0.89291320  0.83628728     0.35100
H189        H  0.85966485  0.91796294  0.79387539     0.27800
H190        H  0.00170613  0.93851718  0.81617581     0.32100
H191        H  0.97633721  0.96530370  0.76014518     0.34900
H192        H  0.93094036  0.86947455  0.77031925     0.27500
H193        H  0.85635050  0.93555436  0.80801923     0.40400
H194        H  0.91286220  0.99040967  0.85594959     0.30500
H195        H  0.90323552  0.90052978  0.86060300     0.38100
H196        H  0.93163041  0.95479651  0.72945926     0.29900
H197        H  0.94435023  0.99963242  0.83036202     0.30000
H198        H  0.99209535  0.95801134  0.80994678     0.30200
Zr199      Zr  0.90019791  0.79325438  0.95632000     2.17500
O200        O  0.86712622  0.79169463  0.96849927    -0.52100
O201        O  0.89926605  0.76859209  0.97944683    -0.75300
O202        O  0.87927100  0.77900158  0.93185415    -0.82100
O203        O  0.91163216  0.83827588  0.98715519    -0.83800
O204        O  0.89783195  0.76838758  0.90671432    -0.79500
O205        O  0.88736598  0.82227005  0.97278477    -0.91100
O206        O  0.91930230  0.74558346  0.96756581    -0.77100
O207        O  0.92101500  0.76808998  0.94343933    -0.86600
O208        O  0.92700007  0.79143764  0.97803869    -0.86200
O209        O  0.90826042  0.80237637  0.92445425    -0.73000
O210        O  0.91516608  0.82340585  0.95559344    -0.85100
Zr211      Zr  0.97164587  0.80665635  0.93268107     2.26400
Zr212      Zr  0.93067220  0.77761466  0.91264372     2.06300
Zr213      Zr  0.94205656  0.82170467  0.97671732     2.10000
Zr214      Zr  0.94760182  0.76609196  0.96478596     1.78800
O215        O  0.94438460  0.84752713  0.00076221    -0.93900
O216        O  0.96006563  0.73501689  0.95251329    -0.41700
O217        O  0.96331350  0.79663999  0.96423912    -0.78400
O218        O  0.95795873  0.77521319  0.93362707    -0.97100
O219        O  0.94464064  0.80827866  0.91169440    -0.90400
O220        O  0.95032407  0.83163132  0.94523697    -0.93200
C221        C  0.90277002  0.75113570  0.97466751     1.00500
C222        C  0.89357922  0.83633331  0.98311568     1.13500
C223        C  0.88139115  0.77098111  0.91517875     1.04300
O224        O  0.93251318  0.74300668  0.90689717    -0.95400
O225        O  0.95929283  0.77323608  0.89271253    -0.91100
O226        O  0.98499207  0.78778928  0.90633381    -0.84300
C227        C  0.97727249  0.77752701  0.89325026     1.10900
O228        O  0.89174392  0.84982963  0.92718298    -0.97300
Zr229      Zr  0.92309897  0.83267293  0.92448732     1.88900
O230        O  0.97575077  0.83048638  0.90771756    -0.74000
O231        O  0.92326154  0.78324113  0.87924076    -0.53300
O232        O  0.90496963  0.83310151  0.89469779    -0.97900
O233        O  0.92476336  0.86634870  0.93451530    -0.55100
O234        O  0.94590761  0.84419387  0.90217007    -0.74500
C235        C  0.96405751  0.84186657  0.89872512     0.97800
O236        O  0.00565768  0.79741539  0.93813560    -0.63300
O237        O  0.95244443  0.80651267  0.00607344    -0.58100
O238        O  0.99175646  0.82833850  0.95048938    -0.94800
O239        O  0.97198810  0.83887388  0.97474990    -0.93200
O240        O  0.94701917  0.75943906  0.99870060    -0.93600
O241        O  0.98046442  0.75771410  0.97522482    -0.92400
C242        C  0.98783841  0.83922583  0.96506712     1.16700
H243        H  0.92312795  0.78931576  0.99106875     0.32600
H244        H  0.96721744  0.76550016  0.92889982     0.43500
H245        H  0.95609383  0.84403289  0.94492911     0.37000
H246        H  0.89701994  0.80386417  0.91645131     0.33500
H247        H  0.95766148  0.72609422  0.96292244     0.25300
H248        H  0.91991294  0.77054892  0.87371017     0.31200
H249        H  0.90839270  0.84523182  0.88873905     0.37100
H250        H  0.94316699  0.74591783  0.99927578     0.31600
H251        H  0.95920298  0.79437175  0.00187130     0.30500
H252        H  0.93901373  0.84249656  0.01267805     0.32100
H253        H  0.93749863  0.87052255  0.92990749     0.31100
H254        H  0.98349749  0.76765469  0.98504592     0.35100
H255        H  0.00615891  0.78320000  0.93761054     0.27800
H256        H  0.86224956  0.77911869  0.96413001     0.32100
H257        H  0.88244374  0.83986703  0.93036218     0.34900
H258        H  0.96305142  0.81448955  0.01103100     0.27500
H259        H  0.01282981  0.80119210  0.92664390     0.40400
H260        H  0.92938711  0.74120545  0.89319686     0.30500
H261        H  0.95077849  0.73133267  0.94241008     0.38100
H262        H  0.92608506  0.86619544  0.94856712     0.29900
H263        H  0.91085375  0.79086196  0.87943430     0.30000
H264        H  0.85944415  0.80140022  0.96147779     0.30200
Zr265      Zr  0.30325225  0.47441902  0.93860921     2.17500
O266        O  0.28537174  0.50441821  0.94607673    -0.52100
O267        O  0.32970829  0.48732411  0.92127388    -0.75300
O268        O  0.32978289  0.48984727  0.95728162    -0.82100
O269        O  0.27951981  0.45462208  0.89252129    -0.83800
O270        O  0.32510722  0.47923309  0.98641904    -0.79500
O271        O  0.29073226  0.48221983  0.90605667    -0.91100
O272        O  0.35131644  0.46212179  0.91699479    -0.77100
O273        O  0.33009289  0.45682048  0.95135664    -0.86600
O274        O  0.31131307  0.44866059  0.91659506    -0.86200
O275        O  0.29218732  0.46252355  0.96888776    -0.73000
O276        O  0.27473085  0.45488564  0.93772062    -0.85100
Zr277      Zr  0.30325672  0.40027115  0.95680879     2.26400
Zr278      Zr  0.31995683  0.44552721  0.98135432     2.06300
Zr279      Zr  0.28339364  0.42945742  0.91545425     2.10000
Zr280      Zr  0.33910933  0.43237293  0.92873599     1.78800
O281        O  0.24886984  0.43158196  0.90800499    -0.93900
O282        O  0.37238391  0.43363744  0.94043541    -0.41700
O283        O  0.31189377  0.41229027  0.92623941    -0.78400
O284        O  0.33072061  0.42036474  0.95924250    -0.97100
O285        O  0.29338385  0.42447177  0.97981732    -0.90400
O286        O  0.27459562  0.41628729  0.94514732    -0.93200
C287        C  0.34597318  0.47983868  0.91541511     1.00500
C288        C  0.28345286  0.47243955  0.89187369     1.13500
C289        C  0.33495824  0.48881962  0.97492891     1.04300
O290        O  0.35445718  0.44753659  0.98808895    -0.95400
O291        O  0.32980220  0.42003493  0.00189596    -0.91100
O292        O  0.32304784  0.39290676  0.98487808    -0.84300
C293        C  0.33076549  0.40183271  0.99915457     1.10900
O294        O  0.24453298  0.46817720  0.97730840    -0.97300
Zr295      Zr  0.26549242  0.44074943  0.96752387     1.88900
O296        O  0.27559927  0.38679413  0.97137923    -0.74000
O297        O  0.30808143  0.45470142  0.01322879    -0.53300
O298        O  0.26148573  0.44619939  0.00178875    -0.97900
O299        O  0.23398252  0.44071469  0.95172112    -0.55100
O300        O  0.25178378  0.40974380  0.97698686    -0.74500
C301        C  0.25856115  0.39219065  0.97696007     0.97800
O302        O  0.31539534  0.36695126  0.95667665    -0.63300
O303        O  0.29085007  0.41500608  0.88410162    -0.58100
O304        O  0.29908977  0.38020579  0.92819461    -0.94800
O305        O  0.27466598  0.39649929  0.91390824    -0.93200
O306        O  0.34589654  0.42649325  0.89492207    -0.93600
O307        O  0.35550483  0.40119292  0.92296361    -0.92400
C308        C  0.28613240  0.38186434  0.91519684     1.16700
H309        H  0.31468159  0.45312183  0.90414173     0.32600
H310        H  0.34201125  0.41354105  0.96402991     0.43500
H311        H  0.26390719  0.40790630  0.94352318     0.37000
H312        H  0.28860180  0.47328674  0.97729754     0.33500
H313        H  0.37441074  0.42209420  0.94816052     0.25300
H314        H  0.29842291  0.46531959  0.01129284     0.31200
H315        H  0.26203813  0.43322967  0.00716794     0.37100
H316        H  0.33546129  0.41806343  0.89043940     0.31600
H317        H  0.29971353  0.42385653  0.87798896     0.30500
H318        H  0.24495068  0.44518824  0.91064547     0.32100
H319        H  0.22445773  0.43894196  0.96207695     0.31100
H320        H  0.35001065  0.39281594  0.93263227     0.35100
H321        H  0.32975301  0.36756381  0.95666179     0.27800
H322        H  0.28863551  0.50744899  0.95954569     0.32100
H323        H  0.25164007  0.47951361  0.97333839     0.34900
H324        H  0.27855637  0.41622318  0.87686054     0.27500
H325        H  0.31198890  0.36194299  0.96928384     0.40400
H326        H  0.36090303  0.44691599  0.97544028     0.30500
H327        H  0.38064772  0.43113573  0.92896661     0.38100
H328        H  0.23398560  0.42846141  0.94421723     0.29900
H329        H  0.30021004  0.44384749  0.01711125     0.30000
H330        H  0.27158425  0.50079305  0.94646477     0.30200
Zr331      Zr  0.42276807  0.43658443  0.78392701     2.17500
O332        O  0.43665100  0.44455684  0.75330470    -0.52100
O333        O  0.39950573  0.41242897  0.77375622    -0.75300
O334        O  0.43939815  0.40619485  0.77173819    -0.82100
O335        O  0.40100231  0.48490856  0.78456525    -0.83800
O336        O  0.45345162  0.39276329  0.79747633    -0.79500
O337        O  0.39799899  0.45724806  0.76817502    -0.91100
O338        O  0.38489198  0.40241508  0.80068762    -0.77100
O339        O  0.42174012  0.41364114  0.80820312    -0.86600
O340        O  0.39551580  0.44580793  0.80407787    -0.86200
O341        O  0.45355254  0.43910509  0.80059941    -0.73000
O342        O  0.42993378  0.46782496  0.79808185    -0.85100
Zr343      Zr  0.42964752  0.45340170  0.85758452     2.26400
Zr344      Zr  0.45201746  0.41521800  0.82446931     2.06300
Zr345      Zr  0.40230360  0.47687419  0.81773750     2.10000
Zr346      Zr  0.39426020  0.42217647  0.82762016     1.78800
O347        O  0.40368852  0.51150837  0.81488595    -0.93900
O348        O  0.39228802  0.38970506  0.83920698    -0.41700
O349        O  0.39929007  0.45323845  0.84149979    -0.78400
O350        O  0.42428428  0.42212608  0.84462713    -0.97100
O351        O  0.45796859  0.44565710  0.83920030    -0.90400
O352        O  0.43173704  0.47814868  0.83535771    -0.93200
C353        C  0.38816804  0.40142055  0.78271654     1.00500
C354        C  0.39282443  0.47499498  0.77152510     1.13500
C355        C  0.44870938  0.39214863  0.77981176     1.04300
O356        O  0.45155181  0.38208934  0.83439043    -0.95400
O357        O  0.46511385  0.41050683  0.85615412    -0.91100
O358        O  0.45096421  0.43326135  0.87571117    -0.84300
C359        C  0.46239391  0.41867409  0.87263702     1.10900
O360        O  0.47557096  0.48215613  0.78868252    -0.97300
Zr361      Zr  0.45946760  0.46986531  0.81653872     1.88900
O362        O  0.45197075  0.47508296  0.87101890    -0.74000
O363        O  0.48688704  0.41229040  0.81809753    -0.53300
O364        O  0.49322780  0.45843844  0.81381457    -0.97900
O365        O  0.45817951  0.50439915  0.81195389    -0.55100
O366        O  0.47283050  0.48264123  0.84739960    -0.74500
C367        C  0.46703449  0.48314494  0.86502357     0.97800
O368        O  0.41575814  0.44472784  0.88806093    -0.63300
O369        O  0.36705669  0.47969472  0.81465788    -0.58100
O370        O  0.40974759  0.47939079  0.87044140    -0.94800
O371        O  0.39299289  0.49440106  0.84722144    -0.93200
O372        O  0.36043512  0.43261689  0.82333228    -0.93600
O373        O  0.37683496  0.41796190  0.85742560    -0.92400
C374        C  0.39771026  0.49235156  0.86476593     1.16700
H375        H  0.38338943  0.44608067  0.79721780     0.32600
H376        H  0.42383946  0.41303213  0.85472927     0.43500
H377        H  0.43296374  0.49055436  0.84159266     0.37000
H378        H  0.46397479  0.43594681  0.79168468     0.33500
H379        H  0.38005794  0.38479159  0.83384239     0.25300
H380        H  0.48892153  0.41796171  0.80551446     0.31200
H381        H  0.50066534  0.46809041  0.82109075     0.37100
H382        H  0.35845880  0.44374760  0.83232124     0.31600
H383        H  0.36203861  0.47910698  0.82787589     0.30500
H384        H  0.41394456  0.51558187  0.82383823     0.32100
H385        H  0.45720181  0.51032721  0.82494043     0.31100
H386        H  0.37848017  0.43007459  0.86486445     0.35100
H387        H  0.40152546  0.44664814  0.88663977     0.27800
H388        H  0.43546195  0.45874549  0.75301673     0.32100
H389        H  0.47388221  0.47215941  0.77856840     0.34900
H390        H  0.36443862  0.49317733  0.81113390     0.27500
H391        H  0.41950936  0.45498575  0.89726019     0.40400
H392        H  0.43856753  0.38084731  0.84026171     0.30500
H393        H  0.40271768  0.38226914  0.83224405     0.38100
H394        H  0.44528255  0.50704591  0.80619992     0.29900
H395        H  0.49276407  0.42135947  0.82735925     0.30000
H396        H  0.42714956  0.44001686  0.74376053     0.30200
Zr397      Zr  0.28458669  0.27353620  0.81415342     2.17500
O398        O  0.26787381  0.24525251  0.80266651    -0.52100
O399        O  0.29977925  0.25975219  0.84230798    -0.75300
O400        O  0.31289091  0.25424327  0.80012814    -0.82100
O401        O  0.24804147  0.29572688  0.85050079    -0.83800
O402        O  0.31793780  0.26733354  0.77162614    -0.79500
O403        O  0.26037735  0.26685583  0.83975476    -0.91100
O404        O  0.32183875  0.28176095  0.85142697    -0.77100
O405        O  0.31543024  0.28730622  0.80877142    -0.86600
O406        O  0.28774609  0.29831707  0.83792845    -0.86200
O407        O  0.28363530  0.28740198  0.78259750    -0.73000
O408        O  0.25816358  0.29676432  0.80891397    -0.85100
Zr409      Zr  0.29353675  0.34794307  0.79798744     2.26400
Zr410      Zr  0.31484696  0.30137738  0.77780152     2.06300
Zr411      Zr  0.26207730  0.32133712  0.83303594     2.10000
Zr412      Zr  0.31900766  0.31066879  0.83337853     1.78800
O413        O  0.22719264  0.32865225  0.83251978    -0.93900
O414        O  0.35341329  0.30325872  0.82759154    -0.41700
O415        O  0.29376442  0.33396377  0.82892181    -0.78400
O416        O  0.31957053  0.32479932  0.80276032    -0.97100
O417        O  0.28927592  0.32466601  0.77301749    -0.90400
O418        O  0.26179154  0.33546296  0.80248794    -0.93200
C419        C  0.31309090  0.26600333  0.85343185     1.00500
C420        C  0.24939875  0.27740376  0.85130408     1.13500
C421        C  0.32230976  0.25500815  0.78411160     1.04300
O422        O  0.34876919  0.29049676  0.77458806    -0.95400
O423        O  0.33587304  0.32656373  0.76654633    -0.91100
O424        O  0.32192762  0.35417398  0.77881509    -0.84300
C425        C  0.33534177  0.34491979  0.76927947     1.10900
O426        O  0.24149979  0.28478205  0.76319192    -0.97300
Zr427      Zr  0.25806828  0.31160793  0.77822318     1.88900
O428        O  0.26961474  0.36411090  0.77864138    -0.74000
O429        O  0.30855226  0.30035081  0.74362988    -0.53300
O430        O  0.25850658  0.30934973  0.74348852    -0.97900
O431        O  0.22410137  0.31326818  0.78835334    -0.55100
O432        O  0.24775983  0.34344069  0.76636207    -0.74500
C433        C  0.25466014  0.36032708  0.76862492     0.97800
O434        O  0.30471273  0.38055173  0.79470593    -0.63300
O435        O  0.26219877  0.32858749  0.86722380    -0.58100
O436        O  0.28992494  0.36692939  0.82724678    -0.94800
O437        O  0.26122246  0.35617589  0.83419787    -0.93200
O438        O  0.31451872  0.32307320  0.86599525    -0.93600
O439        O  0.34270264  0.33342496  0.84476824    -0.92400
C440        C  0.27593690  0.36573012  0.83900979     1.16700
H441        H  0.28645020  0.29387087  0.85050039     0.32600
H442        H  0.33223815  0.33035319  0.80207134     0.43500
H443        H  0.25139179  0.34509243  0.80226712     0.37000
H444        H  0.28194399  0.27725909  0.77319503     0.33500
H445        H  0.35676400  0.29266626  0.83620549     0.25300
H446        H  0.31286375  0.31282069  0.73902520     0.31200
H447        H  0.24544991  0.31417705  0.73955805     0.37100
H448        H  0.32322602  0.31490357  0.87380587     0.31600
H449        H  0.24966476  0.32433365  0.87236036     0.30500
H450        H  0.22587766  0.34248863  0.82977863     0.32100
H451        H  0.21655218  0.31206118  0.77642118     0.31100
H452        H  0.34470351  0.34194442  0.83395018     0.35100
H453        H  0.29355940  0.38919784  0.79849228     0.27800
H454        H  0.27479258  0.24117001  0.79076519     0.32100
H455        H  0.24627127  0.27333654  0.77001446     0.34900
H456        H  0.27220371  0.31979822  0.87256277     0.27500
H457        H  0.31451814  0.38245029  0.80483892     0.40400
H458        H  0.35014136  0.28545635  0.76129208     0.30500
H459        H  0.35410415  0.29739627  0.81458501     0.38100
H460        H  0.22166449  0.32676469  0.79273116     0.29900
H461        H  0.31821443  0.29079729  0.73829918     0.30000
H462        H  0.25504474  0.25032399  0.79837426     0.30200
Zr463      Zr  0.40725819  0.27654364  0.92908908     2.17500
O464        O  0.42439340  0.24559249  0.93142451    -0.52100
O465        O  0.37859754  0.26759616  0.91134733    -0.75300
O466        O  0.38365984  0.25759377  0.94714248    -0.82100
O467        O  0.43539266  0.29390650  0.88566963    -0.83800
O468        O  0.37340273  0.27745974  0.97161082    -0.79500
O469        O  0.41946865  0.26808624  0.89624497    -0.91100
O470        O  0.36040198  0.29501309  0.90729696    -0.77100
O471        O  0.38123944  0.29697456  0.94067640    -0.86600
O472        O  0.40410975  0.30312169  0.90863313    -0.86200
O473        O  0.41660584  0.28681288  0.96114251    -0.73000
O474        O  0.43787193  0.29275252  0.93197760    -0.85100
Zr475      Zr  0.41422064  0.34949993  0.95208215     2.26400
Zr476      Zr  0.38979696  0.30699743  0.97207295     2.06300
Zr477      Zr  0.43439266  0.31873074  0.91054878     2.10000
Zr478      Zr  0.37752421  0.32265385  0.91948222     1.78800
O479        O  0.46857530  0.30942479  0.90632185    -0.93900
O480        O  0.34379019  0.32918357  0.92894008    -0.41700
O481        O  0.40730978  0.33924059  0.92012418    -0.78400
O482        O  0.38428869  0.33322630  0.95131495    -0.97100
O483        O  0.41857699  0.32465139  0.97434568    -0.90400
O484        O  0.44169124  0.33015794  0.94191946    -0.93200
C485        C  0.36333149  0.27674130  0.90559256     1.00500
C486        C  0.42865386  0.27709503  0.88324555     1.13500
C487        C  0.37270374  0.26175626  0.96184935     1.04300
O488        O  0.35557855  0.30996500  0.98100863    -0.95400
O489        O  0.38370549  0.33371808  0.99387991    -0.91100
O490        O  0.39549426  0.35998413  0.98028751    -0.84300
C491        C  0.38599706  0.35179016  0.99342959     1.10900
O492        O  0.46394030  0.27592997  0.97011782    -0.97300
Zr493      Zr  0.44568190  0.30553657  0.96365790     1.88900
O494        O  0.43698092  0.36036777  0.97444719    -0.74000
O495        O  0.39838725  0.29391811  0.00288405    -0.53300
O496        O  0.44681020  0.29712401  0.99709476    -0.97900
O497        O  0.47930543  0.30488255  0.95239856    -0.55100
O498        O  0.45877362  0.33560814  0.97896649    -0.74500
C499        C  0.45269108  0.35340319  0.98121242     0.97800
O500        O  0.39903837  0.38066471  0.94551491    -0.63300
O501        O  0.43173035  0.33427967  0.87990873    -0.58100
O502        O  0.43736638  0.36829661  0.93477298    -0.94800
O503        O  0.44931695  0.34961139  0.91021253    -0.93200
O504        O  0.37599312  0.32759447  0.88529119    -0.93600
O505        O  0.36754587  0.35583535  0.91404365    -0.92400
C506        C  0.44875874  0.36523292  0.92034368     1.16700
H507        H  0.40080639  0.29925861  0.89577128     0.32600
H508        H  0.37371882  0.34153242  0.95590603     0.43500
H509        H  0.45359876  0.33702069  0.94233349     0.37000
H510        H  0.41801308  0.27568136  0.96895260     0.33500
H511        H  0.33604386  0.32528988  0.91768539     0.25300
H512        H  0.40517827  0.28142921  0.99998651     0.31200
H513        H  0.44499639  0.30949789  0.00427656     0.37100
H514        H  0.36209989  0.32637181  0.88205032     0.31600
H515        H  0.42233354  0.32669485  0.87248936     0.30500
H516        H  0.47102736  0.31061168  0.89249436     0.32100
H517        H  0.48702144  0.30811421  0.96387033     0.31100
H518        H  0.37904989  0.36179768  0.90848697     0.35100
H519        H  0.38510840  0.37938385  0.94865921     0.27800
H520        H  0.42282319  0.24217762  0.94492593     0.32100
H521        H  0.46032606  0.26691885  0.95964719     0.34900
H522        H  0.42463733  0.34664667  0.88269583     0.27500
H523        H  0.40394089  0.38945168  0.95561246     0.40400
H524        H  0.35024195  0.32079636  0.97362483     0.30500
H525        H  0.34115932  0.31950250  0.93856863     0.38100
H526        H  0.48041983  0.31615084  0.94426429     0.29900
H527        H  0.40863898  0.30227384  0.00791553     0.30000
H528        H  0.43831310  0.24856615  0.93021363     0.30200
Zr529      Zr  0.52571062  0.21667911  0.54407067     2.17500
O530        O  0.51688937  0.25027598  0.53824169    -0.52100
O531        O  0.55516186  0.22223305  0.56230271    -0.75300
O532        O  0.51589864  0.23087932  0.57580007    -0.82100
O533        O  0.55870838  0.20185260  0.50222668    -0.83800
O534        O  0.49244205  0.21172104  0.58667790    -0.79500
O535        O  0.54892700  0.22812628  0.52011828    -0.91100
O536        O  0.56275921  0.19362800  0.57567692    -0.77100
O537        O  0.51863149  0.19409385  0.56645303    -0.86600
O538        O  0.54769947  0.18989066  0.53812020    -0.86200
O539        O  0.49199244  0.20917373  0.53891306    -0.73000
O540        O  0.51825013  0.20274479  0.51282463    -0.85100
Zr541      Zr  0.50001597  0.14560419  0.53165863     2.26400
Zr542      Zr  0.48557063  0.18727273  0.56355307     2.06300
Zr543      Zr  0.53929428  0.17485583  0.50848281     2.10000
Zr544      Zr  0.54182816  0.16911223  0.56308768     1.78800
O545        O  0.53295982  0.17314907  0.47433138    -0.93900
O546        O  0.54601715  0.15936849  0.59594678    -0.41700
O547        O  0.53377233  0.15362775  0.53373408    -0.78400
O548        O  0.50872586  0.16087137  0.56169169    -0.97100
O549        O  0.47771881  0.17250469  0.53374847    -0.90400
O550        O  0.50669741  0.16557500  0.50520146    -0.93200
C551        C  0.56571213  0.21140696  0.57289653     1.00500
C552        C  0.55970355  0.21959456  0.50707429     1.13500
C553        C  0.50394720  0.22556719  0.58877624     1.04300
O554        O  0.46380747  0.19347304  0.59089785    -0.95400
O555        O  0.47221100  0.15783930  0.57606924    -0.91100
O556        O  0.48748971  0.13238465  0.56091320    -0.84300
C557        C  0.47783248  0.14009037  0.57509121     1.10900
O558        O  0.47230469  0.22502723  0.50030606    -0.97300
Zr559      Zr  0.48521510  0.19335542  0.50833113     1.88900
O560        O  0.46942865  0.15144288  0.51581896    -0.74000
O561        O  0.45516971  0.20112901  0.55098488    -0.53300
O562        O  0.45002411  0.19812923  0.51093405    -0.97900
O563        O  0.49427878  0.20245332  0.47628991    -0.55100
O564        O  0.47234478  0.16673839  0.48924099    -0.74500
C565        C  0.46816889  0.15150296  0.49776648     0.97800
O566        O  0.48845208  0.11302065  0.52751808    -0.63300
O567        O  0.57291380  0.17054135  0.49757956    -0.58100
O568        O  0.52149266  0.12393778  0.51273383    -0.94800
O569        O  0.54824449  0.14089843  0.50690049    -0.93200
O570        O  0.57323023  0.15720235  0.55009377    -0.93600
O571        O  0.54633844  0.13585699  0.57297960    -0.92400
C572        C  0.53938397  0.12504332  0.50785315     1.16700
H573        H  0.56112037  0.19343447  0.53788146     0.32600
H574        H  0.50892162  0.15358972  0.57308099     0.43500
H575        H  0.50580465  0.15841779  0.49326656     0.37000
H576        H  0.48399596  0.22077539  0.54054771     0.33500
H577        H  0.55469161  0.16873283  0.60204977     0.25300
H578        H  0.44522599  0.19149680  0.55325306     0.31200
H579        H  0.44469756  0.19191321  0.49929187     0.37100
H580        H  0.58159866  0.15548618  0.56142885     0.31600
H581        H  0.57230591  0.16329475  0.48526570     0.30500
H582        H  0.53788288  0.16018792  0.47012633     0.32100
H583        H  0.49694100  0.19015240  0.46921347     0.31100
H584        H  0.54245652  0.12789942  0.56178559     0.35100
H585        H  0.47450473  0.11396488  0.53108204     0.27800
H586        H  0.52572797  0.25770818  0.54652170     0.32100
H587        H  0.48261543  0.23387735  0.50421878     0.34900
H588        H  0.57921553  0.16153925  0.50649314     0.27500
H589        H  0.48833491  0.11027990  0.51359741     0.40400
H590        H  0.45136738  0.18745629  0.58762415     0.30500
H591        H  0.53314748  0.16162344  0.60208914     0.38100
H592        H  0.50716877  0.20824510  0.47762667     0.29900
H593        H  0.45158613  0.21204810  0.55980657     0.30000
H594        H  0.50390424  0.25241656  0.54421110     0.30200
Zr595      Zr  0.65118424  0.21834693  0.66617257     2.17500
O596        O  0.66071908  0.25061118  0.67552867    -0.52100
O597        O  0.63042236  0.22455654  0.63856626    -0.75300
O598        O  0.66930070  0.23060594  0.63892628    -0.82100
O599        O  0.61306165  0.21545263  0.70627363    -0.83800
O600        O  0.68811877  0.20534352  0.62755743    -0.79500
O601        O  0.62141346  0.23367587  0.68127214    -0.91100
O602        O  0.62192968  0.19511864  0.62734561    -0.77100
O603        O  0.65460948  0.19232691  0.64354857    -0.86600
O604        O  0.62707779  0.19579050  0.67287123    -0.86200
O605        O  0.68359747  0.20421188  0.67072061    -0.73000
O606        O  0.65858368  0.20785199  0.69814957    -0.85100
Zr607      Zr  0.66620222  0.14620324  0.68540398     2.26400
Zr608      Zr  0.68603993  0.17810126  0.64773862     2.06300
Zr609      Zr  0.63312607  0.18630440  0.70474938     2.10000
Zr610      Zr  0.63000799  0.17047535  0.64977455     1.78800
O611        O  0.63380132  0.19893431  0.73751099    -0.93900
O612        O  0.63639349  0.15405723  0.61910989    -0.41700
O613        O  0.63438212  0.16007090  0.68182582    -0.78400
O614        O  0.66132063  0.15546648  0.65325856    -0.97100
O615        O  0.69202746  0.16660103  0.67873800    -0.90400
O616        O  0.66452494  0.17140766  0.70889164    -0.93200
C617        C  0.62259909  0.21338903  0.62606757     1.00500
C618        C  0.61021938  0.22974884  0.69545527     1.13500
C619        C  0.68129549  0.22263550  0.62663944     1.04300
O620        O  0.68489277  0.16702735  0.61448196    -0.95400
O621        O  0.70356094  0.14764093  0.64526579    -0.91100
O622        O  0.69116124  0.12850652  0.66740926    -0.84300
C623        C  0.70289536  0.13165723  0.65372395     1.10900
O624        O  0.70184934  0.22259535  0.71319043    -0.97300
Zr625      Zr  0.69030423  0.19160438  0.70192181     1.88900
O626        O  0.69092350  0.13629080  0.70679421    -0.74000
O627        O  0.72067552  0.18379830  0.64630006    -0.53300
O628        O  0.72337085  0.19660024  0.69098697    -0.97900
O629        O  0.68971458  0.19695449  0.73646847    -0.55100
O630        O  0.70888998  0.16246089  0.71330526    -0.74500
C631        C  0.70579559  0.14421832  0.71380004     0.97800
O632        O  0.65480234  0.11410087  0.67799346    -0.63300
O633        O  0.59887796  0.17843128  0.70478502    -0.58100
O634        O  0.64808504  0.13531526  0.71223754    -0.94800
O635        O  0.62966885  0.15964572  0.72567245    -0.93200
O636        O  0.59468395  0.17423697  0.65102164    -0.93600
O637        O  0.61217203  0.14093339  0.64716636    -0.92400
C638        C  0.63617575  0.14221026  0.72500215     1.16700
H639        H  0.61403431  0.20092025  0.67156788     0.32600
H640        H  0.66280180  0.14443437  0.64467509     0.43500
H641        H  0.66623073  0.16667170  0.72161075     0.37000
H642        H  0.69311326  0.21357447  0.66788239     0.33500
H643        H  0.62363594  0.15405722  0.61262987     0.25300
H644        H  0.72370454  0.18401594  0.63249534     0.31200
H645        H  0.72906772  0.18354461  0.68840347     0.37100
H646        H  0.59056516  0.17463135  0.63751213     0.31600
H647        H  0.59874143  0.16425160  0.70366260     0.30500
H648        H  0.63507026  0.21295926  0.73649372     0.32100
H649        H  0.69633159  0.18545460  0.74172663     0.31100
H650        H  0.62119757  0.13094282  0.65213153     0.35100
H651        H  0.64068071  0.11485539  0.68081725     0.27800
H652        H  0.65295011  0.25408667  0.68710738     0.32100
H653        H  0.71435817  0.21979393  0.71966781     0.34900
H654        H  0.59429516  0.18160644  0.71793431     0.27500
H655        H  0.65555345  0.11272678  0.66391255     0.40400
H656        H  0.68042628  0.15369511  0.61479877     0.30500
H657        H  0.64407557  0.16314767  0.61186316     0.38100
H658        H  0.67591675  0.19594755  0.74020599     0.29900
H659        H  0.72195570  0.19718615  0.65104958     0.30000
H660        H  0.65519729  0.25890885  0.66554671     0.30200
Zr661      Zr  0.64772568  0.05546036  0.51971035     2.17500
O662        O  0.66048744  0.04823143  0.48779189    -0.52100
O663        O  0.61696319  0.07103879  0.51192635    -0.75300
O664        O  0.62331380  0.03413189  0.50586155    -0.82100
O665        O  0.67461439  0.10195852  0.52949602    -0.83800
O666        O  0.61376495  0.01579445  0.53000210    -0.79500
O667        O  0.65676095  0.08663029  0.50671457    -0.91100
O668        O  0.60141184  0.07571657  0.54030187    -0.77100
O669        O  0.62584748  0.04478471  0.54315957    -0.86600
O670        O  0.64563420  0.07975638  0.54435438    -0.86200
O671        O  0.66154021  0.02516958  0.53037226    -0.73000
O672        O  0.68028857  0.05745905  0.53208393    -0.85100
Zr673      Zr  0.66784740  0.04309672  0.59013222     2.26400
Zr674      Zr  0.63911804  0.01512110  0.55420526     2.06300
Zr675      Zr  0.67782258  0.08211824  0.55671721     2.10000
Zr676      Zr  0.62294055  0.06935805  0.56689361     1.78800
O677        O  0.71012774  0.08903284  0.54507335    -0.93900
O678        O  0.59338403  0.05481340  0.57792266    -0.41700
O679        O  0.65473687  0.07328085  0.58017710    -0.78400
O680        O  0.63542025  0.03957361  0.57890719    -0.97100
O681        O  0.67075435  0.01765134  0.56712911    -0.90400
O682        O  0.69103209  0.05276181  0.56774560    -0.93200
C683        C  0.60198999  0.07604951  0.52200146     1.00500
C684        C  0.66636508  0.10103949  0.51320511     1.13500
C685        C  0.61132815  0.02263864  0.51332622     1.04300
O686        O  0.61242899  0.99442134  0.56120757    -0.95400
O687        O  0.63870445  0.00001402  0.58550313    -0.91100
O688        O  0.66272970  0.01272228  0.60312032    -0.84300
C689        C  0.64921037  0.00093130  0.60068830     1.10900
O690        O  0.70636791  0.01600580  0.51375957    -0.97300
Zr691      Zr  0.69352139  0.02770993  0.54454144     1.88900
O692        O  0.69757631  0.02772416  0.59916286    -0.74000
O693        O  0.65325758  0.98618005  0.53870687    -0.53300
O694        O  0.69695496  0.99280935  0.54338083    -0.97900
O695        O  0.72438157  0.04098206  0.53539045    -0.55100
O696        O  0.71488385  0.01990887  0.57216156    -0.74500
C697        C  0.71280408  0.02114153  0.59052019     0.97800
O698        O  0.65444619  0.04892751  0.62207961    -0.63300
O699        O  0.67137454  0.11452699  0.56965692    -0.58100
O700        O  0.68854699  0.06503567  0.60598391    -0.94800
O701        O  0.69653258  0.08794690  0.58562826    -0.93200
O702        O  0.61398521  0.10346384  0.56674777    -0.93600
O703        O  0.61250493  0.08258268  0.59795587    -0.92400
C704        C  0.69805574  0.07965410  0.60169697     1.16700
H705        H  0.64071905  0.09187236  0.53966912     0.32600
H706        H  0.62706956  0.03552071  0.58903306     0.43500
H707        H  0.70373084  0.05466211  0.57304553     0.37000
H708        H  0.66207320  0.01602733  0.51972787     0.33500
H709        H  0.58280524  0.06434062  0.57526399     0.25300
H710        H  0.65266805  0.97631718  0.54853635     0.31200
H711        H  0.71112557  0.99004050  0.54432587     0.37100
H712        H  0.62578971  0.11000789  0.57106936     0.31600
H713        H  0.68177010  0.12223851  0.56425861     0.30500
H714        H  0.71181925  0.10271674  0.54862714     0.32100
H715        H  0.73026978  0.04542597  0.54753129     0.31100
H716        H  0.61828369  0.07366068  0.60724240     0.35100
H717        H  0.65113824  0.06285874  0.62278939     0.27800
H718        H  0.64904284  0.04944428  0.47934357     0.32100
H719        H  0.69565603  0.00893101  0.50772917     0.34900
H720        H  0.65938513  0.11903698  0.56317951     0.27500
H721        H  0.64170966  0.04273586  0.62190702     0.40400
H722        H  0.60164202  0.00333463  0.56544528     0.30500
H723        H  0.59130901  0.04402920  0.56873394     0.38100
H724        H  0.72074789  0.05294584  0.52881907     0.29900
H725        H  0.64349917  0.98236325  0.52910755     0.30000
H726        H  0.66380359  0.03429943  0.48766940     0.30200
Zr727      Zr  0.50955353  0.05956485  0.66759349     2.17500
O728        O  0.47946011  0.04517333  0.67720097    -0.52100
O729        O  0.49652220  0.08124274  0.64430413    -0.75300
O730        O  0.49082015  0.08721896  0.68353604    -0.82100
O731        O  0.52619209  0.02414472  0.62691961    -0.83800
O732        O  0.51208749  0.10223200  0.70310779    -0.79500
O733        O  0.49966367  0.04176257  0.63763466    -0.91100
O734        O  0.52254672  0.09730117  0.63376273    -0.77100
O735        O  0.52879894  0.08702004  0.67237187    -0.86600
O736        O  0.53453894  0.05848353  0.64396425    -0.86200
O737        O  0.52364825  0.05655167  0.69922959    -0.73000
O738        O  0.52855877  0.03022352  0.67361168    -0.85100
Zr739      Zr  0.58581642  0.05560720  0.68205490     2.26400
Zr740      Zr  0.54268442  0.08451024  0.70325250     2.06300
Zr741      Zr  0.55249372  0.02924747  0.64872211     2.10000
Zr742      Zr  0.55284191  0.08614426  0.64804666     1.78800
O743        O  0.54406530  0.99560592  0.64861286    -0.93900
O744        O  0.55409723  0.12064093  0.65401640    -0.41700
O745        O  0.57190934  0.05706914  0.65101336    -0.78400
O746        O  0.56714875  0.08486430  0.67886715    -0.97100
O747        O  0.56294926  0.05664826  0.70761103    -0.90400
O748        O  0.56750197  0.02730747  0.67910552    -0.93200
C749        C  0.50432748  0.09380541  0.63406677     1.00500
C750        C  0.50875319  0.03072460  0.62499943     1.13500
C751        C  0.49530514  0.10100519  0.69542960     1.04300
O752        O  0.54906902  0.11863269  0.70556682    -0.95400
O753        O  0.57032002  0.09170398  0.72280373    -0.91100
O754        O  0.59618366  0.07788833  0.70713474    -0.84300
C755        C  0.58861392  0.08857188  0.72067128     1.10900
O756        O  0.51706184  0.01254119  0.71699632    -0.97300
Zr757      Zr  0.54499302  0.02862051  0.70436880     1.88900
O758        O  0.60087689  0.03639598  0.70517319    -0.74000
O759        O  0.53014455  0.08339326  0.73578539    -0.53300
O760        O  0.54022071  0.03565967  0.73832349    -0.97900
O761        O  0.54645726  0.99371962  0.70062347    -0.55100
O762        O  0.57742104  0.01875270  0.71845008    -0.74500
C763        C  0.59534222  0.02372377  0.71643074     0.97800
O764        O  0.61585778  0.06918432  0.67096855    -0.63300
O765        O  0.56841599  0.02598371  0.61761538    -0.58100
O766        O  0.60505074  0.03032619  0.66475387    -0.94800
O767        O  0.58429875  0.01444447  0.64563694    -0.93200
O768        O  0.55801720  0.08239643  0.61375530    -0.93600
O769        O  0.58352564  0.09863672  0.63733232    -0.92400
C770        C  0.60119185  0.01676122  0.65262214     1.16700
H771        H  0.52949299  0.05935970  0.63130189     0.32600
H772        H  0.57524280  0.09577832  0.68087765     0.43500
H773        H  0.57535590  0.01567047  0.68023636     0.37000
H774        H  0.51314138  0.05683885  0.70840023     0.33500
H775        H  0.54937356  0.12639426  0.64207977     0.25300
H776        H  0.52087317  0.07286133  0.73586652     0.31200
H777        H  0.55156839  0.04319446  0.74219552     0.37100
H778        H  0.55246966  0.09434712  0.60838623     0.31600
H779        H  0.55925984  0.01927165  0.60909966     0.30500
H780        H  0.53024710  0.99569539  0.65261840     0.32100
H781        H  0.56044441  0.98994047  0.70123899     0.31100
H782        H  0.59219241  0.09792894  0.64854863     0.35100
H783        H  0.61544923  0.06761798  0.65689726     0.27800
H784        H  0.48066733  0.03175512  0.67220775     0.32100
H785        H  0.50641885  0.02246993  0.71737296     0.34900
H786        H  0.56884886  0.03920447  0.61291336     0.27500
H787        H  0.61412834  0.08318898  0.67345134     0.40400
H788        H  0.54164151  0.12350307  0.71692807     0.30500
H789        H  0.54365894  0.12366116  0.66349166     0.38100
H790        H  0.54287290  0.99111438  0.68717959     0.29900
H791        H  0.54124374  0.07868524  0.74347955     0.30000
H792        H  0.46937592  0.05129412  0.66912123     0.30200
Zr793      Zr  0.43900384  0.26716668  0.75536423     2.17500
O794        O  0.41143416  0.28964533  0.75170228    -0.52100
O795        O  0.43997109  0.26789536  0.79035345    -0.75300
O796        O  0.40817379  0.25269405  0.76320736    -0.82100
O797        O  0.47558213  0.30563984  0.74486727    -0.83800
O798        O  0.40754515  0.22226729  0.75048545    -0.79500
O799        O  0.44543605  0.30172295  0.75747187    -0.91100
O800        O  0.46010940  0.24379345  0.79921463    -0.77100
O801        O  0.44586077  0.23456498  0.76297866    -0.86600
O802        O  0.47255372  0.26553908  0.76381616    -0.86200
O803        O  0.43129385  0.24784766  0.72743976    -0.73000
O804        O  0.45651794  0.27619807  0.72747464    -0.85100
Zr805      Zr  0.48958695  0.22263529  0.71485967     2.26400
Zr806      Zr  0.43914473  0.21514889  0.73515411     2.06300
Zr807      Zr  0.49023685  0.27393844  0.73601018     2.10000
Zr808      Zr  0.47926050  0.23290057  0.77114840     1.78800
O809        O  0.50373086  0.29972459  0.71803406    -0.93900
O810        O  0.47238991  0.20295830  0.78644965    -0.41700
O811        O  0.49738796  0.24113811  0.74330393    -0.78400
O812        O  0.47295842  0.21325145  0.74323382    -0.97100
O813        O  0.45599959  0.22415831  0.70693456    -0.90400
O814        O  0.48269876  0.25543404  0.70782409    -0.93200
C815        C  0.44744200  0.25725718  0.80328434     1.00500
C816        C  0.45960381  0.31227324  0.75265137     1.13500
C817        C  0.39978505  0.23670543  0.75993094     1.04300
O818        O  0.43408549  0.19000391  0.75787220    -0.95400
O819        O  0.45143483  0.18401718  0.72179540    -0.91100
O820        O  0.48124489  0.18881452  0.70885472    -0.84300
C821        C  0.46708617  0.17797470  0.71304451     1.10900
O822        O  0.41890898  0.27578335  0.69599212    -0.97300
Zr823      Zr  0.44908190  0.25684924  0.69976602     1.88900
O824        O  0.49160531  0.22720053  0.68033071    -0.74000
O825        O  0.41457508  0.20519283  0.71236882    -0.53300
O826        O  0.42675115  0.23986730  0.67891274    -0.97900
O827        O  0.45490433  0.28701436  0.68437325    -0.55100
O828        O  0.46709978  0.24704624  0.67090034    -0.74500
C829        C  0.48250964  0.23662075  0.66739049     0.97800
O830        O  0.51468526  0.19702323  0.71436843    -0.63300
O831        O  0.51029935  0.28117923  0.76364319    -0.58100
O832        O  0.52227559  0.23467617  0.71202582    -0.94800
O833        O  0.52293013  0.26570558  0.72290371    -0.93200
O834        O  0.50229354  0.24835414  0.79244556    -0.93600
O835        O  0.50917359  0.21425413  0.77671139    -0.92400
C836        C  0.53106462  0.25042425  0.71516726     1.16700
H837        H  0.47508925  0.27408316  0.77452748     0.32600
H838        H  0.47676494  0.20020841  0.74601054     0.43500
H839        H  0.49068555  0.25974787  0.69757095     0.37000
H840        H  0.41754820  0.24923630  0.72479904     0.33500
H841        H  0.47808030  0.20426649  0.79934944     0.25300
H842        H  0.42175855  0.20290734  0.70020308     0.31200
H843        H  0.41551352  0.23718620  0.68716149     0.37100
H844        H  0.49767895  0.24590467  0.80551289     0.31600
H845        H  0.52054716  0.27086320  0.76345898     0.30500
H846        H  0.49368500  0.30288079  0.70845655     0.32100
H847        H  0.46910027  0.28855911  0.68548375     0.31100
H848        H  0.51493458  0.21186212  0.76385897     0.35100
H849        H  0.52228717  0.19862543  0.70253395     0.27800
H850        H  0.40418665  0.28954242  0.76390860     0.32100
H851        H  0.41744086  0.27737544  0.68208160     0.34900
H852        H  0.51714491  0.29285464  0.76024271     0.27500
H853        H  0.52364516  0.20027558  0.72491078     0.40400
H854        H  0.42009444  0.18722827  0.75700951     0.30500
H855        H  0.45816146  0.20358704  0.78866304     0.38100
H856        H  0.44919527  0.29714514  0.69308867     0.29900
H857        H  0.41110190  0.19223420  0.71632355     0.30000
H858        H  0.40285592  0.28341574  0.74222576     0.30200
Zr859      Zr  0.29241837  0.83435579  0.29810194     2.17500
O860        O  0.30712804  0.86549270  0.30287635    -0.52100
O861        O  0.26772276  0.85034168  0.28053934    -0.75300
O862        O  0.31345451  0.84240782  0.27187421    -0.82100
O863        O  0.25942631  0.83814528  0.33657339    -0.83800
O864        O  0.32290937  0.81572356  0.25462652    -0.79500
O865        O  0.28497281  0.85370731  0.32653290    -0.91100
O866        O  0.24603021  0.82866555  0.26977820    -0.77100
O867        O  0.28736212  0.81135504  0.27305195    -0.86600
O868        O  0.26228896  0.81954034  0.30479573    -0.86200
O869        O  0.32056952  0.81357235  0.29886578    -0.73000
O870        O  0.29582193  0.82025747  0.32868169    -0.85100
Zr871      Zr  0.29137071  0.75970106  0.31368115     2.26400
Zr872      Zr  0.31460166  0.78941189  0.27469222     2.06300
Zr873      Zr  0.26604675  0.80383139  0.33435371     2.10000
Zr874      Zr  0.25800785  0.79613434  0.28062382     1.78800
O875        O  0.26388692  0.81324148  0.36822256    -0.93900
O876        O  0.25887082  0.79097820  0.24586693    -0.41700
O877        O  0.26389361  0.78077892  0.30994760    -0.78400
O878        O  0.28518816  0.77348947  0.28253121    -0.97100
O879        O  0.32009849  0.77638278  0.30562861    -0.90400
O880        O  0.29486277  0.78469333  0.33699801    -0.93200
C881        C  0.25212989  0.84601379  0.27197075     1.00500
C882        C  0.27240217  0.85049171  0.33936854     1.13500
C883        C  0.32188311  0.83397370  0.25742270     1.04300
O884        O  0.31244247  0.77905120  0.24130825    -0.95400
O885        O  0.31624986  0.75513087  0.27099336    -0.91100
O886        O  0.32082959  0.74305424  0.29925876    -0.84300
C887        C  0.32698414  0.74572257  0.28224955     1.10900
O888        O  0.34524155  0.82661185  0.33741662    -0.97300
Zr889      Zr  0.32415915  0.80010754  0.32976203     1.88900
O890        O  0.31062243  0.74787176  0.34064952    -0.74000
O891        O  0.34989920  0.78603098  0.27264025    -0.53300
O892        O  0.35767642  0.79537377  0.31892263    -0.97900
O893        O  0.32460828  0.81242309  0.36268791    -0.55100
O894        O  0.33120116  0.77185564  0.34817565    -0.74500
C895        C  0.32410899  0.75533447  0.35080037     0.97800
O896        O  0.27837283  0.72947848  0.30213455    -0.63300
O897        O  0.23085349  0.80290871  0.33263965    -0.58100
O898        O  0.27167338  0.74990919  0.34111525    -0.94800
O899        O  0.25919307  0.77737307  0.35508363    -0.93200
O900        O  0.22472435  0.79665863  0.29229673    -0.93600
O901        O  0.23802871  0.77109792  0.26706741    -0.92400
C902        C  0.26225848  0.75905460  0.35476293     1.16700
H903        H  0.25113840  0.82835409  0.30523429     0.32600
H904        H  0.28256899  0.76328787  0.27337248     0.43500
H905        H  0.29530216  0.78029812  0.34988983     0.37000
H906        H  0.33212849  0.82044709  0.29578562     0.33500
H907        H  0.24768696  0.79874076  0.24108635     0.25300
H908        H  0.35463300  0.79918501  0.27448800     0.31200
H909        H  0.36522804  0.79297516  0.33064536     0.37100
H910        H  0.22020554  0.81026567  0.29193967     0.31600
H911        H  0.22812824  0.78907036  0.33155505     0.30500
H912        H  0.27649469  0.80891969  0.37366725     0.32100
H913        H  0.32000223  0.80183532  0.37043575     0.31100
H914        H  0.23894019  0.76076035  0.27642704     0.35100
H915        H  0.28563609  0.72624531  0.29018802     0.27800
H916        H  0.30394969  0.87288725  0.29140911     0.32100
H917        H  0.34334730  0.83558836  0.32685945     0.34900
H918        H  0.22624220  0.80701849  0.34555284     0.27500
H919        H  0.28322454  0.71989803  0.31128345     0.40400
H920        H  0.32575724  0.78004921  0.23611787     0.30500
H921        H  0.27043465  0.79769389  0.24146913     0.38100
H922        H  0.31387997  0.82224482  0.36351532     0.29900
H923        H  0.35271756  0.78257002  0.25909255     0.30000
H924        H  0.32137120  0.86287714  0.30219549     0.30200
Zr925      Zr  0.41690477  0.77620237  0.42741592     2.17500
O926        O  0.43696117  0.74783257  0.43420425    -0.52100
O927        O  0.39042764  0.76178477  0.40936907    -0.75300
O928        O  0.39642501  0.75605684  0.44685169    -0.82100
O929        O  0.44873340  0.79240141  0.38674586    -0.83800
O930        O  0.38481086  0.77626007  0.47049661    -0.79500
O931        O  0.43500325  0.76590700  0.39779649    -0.91100
O932        O  0.36868361  0.78613376  0.40345188    -0.77100
O933        O  0.38831182  0.79381433  0.43772899    -0.86600
O934        O  0.41004068  0.79983574  0.40442472    -0.86200
O935        O  0.42418433  0.79060738  0.45853625    -0.73000
O936        O  0.44454152  0.79667879  0.42861856    -0.85100
Zr937      Zr  0.41325991  0.85198880  0.44355858     2.26400
Zr938      Zr  0.39519796  0.80842828  0.46799372     2.06300
Zr939      Zr  0.43739596  0.81997421  0.40527366     2.10000
Zr940      Zr  0.38076902  0.81645442  0.41430443     1.78800
O941        O  0.47218897  0.82239554  0.40005758    -0.93900
O942        O  0.34778567  0.81705614  0.42707861    -0.41700
O943        O  0.40747869  0.83702461  0.41310644    -0.78400
O944        O  0.38589379  0.83172317  0.44485490    -0.97100
O945        O  0.42115335  0.82993370  0.46789613    -0.90400
O946        O  0.44335546  0.83570256  0.43520079    -0.93200
C947        C  0.37410268  0.76837960  0.40297404     1.00500
C948        C  0.44582710  0.77441204  0.38571740     1.13500
C949        C  0.38576307  0.75992023  0.46170779     1.04300
O950        O  0.36223493  0.80409469  0.47943362    -0.95400
O951        O  0.38447658  0.83620838  0.48717664    -0.91100
O952        O  0.39263792  0.86208335  0.47054775    -0.84300
C953        C  0.38470920  0.85433336  0.48490587     1.10900
O954        O  0.47376460  0.78724278  0.46572347    -0.97300
Zr955      Zr  0.45027744  0.81297398  0.45888047     1.88900
O956        O  0.43884006  0.86642481  0.46082090    -0.74000
O957        O  0.40742268  0.80197164  0.49980447    -0.53300
O958        O  0.45112506  0.80575866  0.49263690    -0.97900
O959        O  0.48351360  0.81713890  0.44803521    -0.55100
O960        O  0.45920228  0.84394695  0.47366473    -0.74500
C961        C  0.45318324  0.86138491  0.47119891     0.97800
O962        O  0.40225964  0.88542157  0.44072583    -0.63300
O963        O  0.43078398  0.82515986  0.37167950    -0.58100
O964        O  0.41724892  0.86880779  0.41379540    -0.94800
O965        O  0.44376521  0.85332095  0.40224716    -0.93200
O966        O  0.37843621  0.81857080  0.37974241    -0.93600
O967        O  0.36057085  0.84427513  0.40609270    -0.92400
C968        C  0.43023832  0.86602556  0.40076482     1.16700
H969        H  0.40845201  0.79407449  0.39188086     0.32600
H970        H  0.37424273  0.83882102  0.44872743     0.43500
H971        H  0.45389908  0.84438063  0.43422649     0.37000
H972        H  0.42699516  0.78061847  0.46737904     0.33500
H973        H  0.33973725  0.81171647  0.41666751     0.25300
H974        H  0.39556917  0.80047680  0.50761129     0.31200
H975        H  0.44530182  0.81734722  0.49921540     0.37100
H976        H  0.38638122  0.82961127  0.37656370     0.31600
H977        H  0.42043167  0.83532911  0.37159071     0.30500
H978        H  0.47330584  0.83038983  0.38869406     0.32100
H979        H  0.48478748  0.83114949  0.44682572     0.31100
H980        H  0.35168697  0.83951392  0.39607361     0.35100
H981        H  0.38793708  0.88548843  0.44222188     0.27800
H982        H  0.42967663  0.73698590  0.42874385     0.32100
H983        H  0.46895555  0.77591740  0.45857182     0.34900
H984        H  0.44248859  0.83133892  0.36682311     0.27500
H985        H  0.40701696  0.89220106  0.45228978     0.40400
H986        H  0.35383017  0.81164748  0.47082046     0.30500
H987        H  0.34808636  0.80714916  0.43689836     0.38100
H988        H  0.48380056  0.81195204  0.43474777     0.29900
H989        H  0.41349762  0.78892496  0.49880379     0.30000
H990        H  0.43593501  0.74652942  0.44818882     0.30200
Zr991      Zr  0.28217093  0.96689706  0.43129285     2.17500
O992        O  0.26310922  0.99626798  0.43855834    -0.52100
O993        O  0.30066404  0.97776840  0.40352326    -0.75300
O994        O  0.30540400  0.98902009  0.44608446    -0.82100
O995        O  0.25280071  0.94066015  0.39386544    -0.83800
O996        O  0.30316460  0.97918175  0.47564375    -0.79500
O997        O  0.25848618  0.97066213  0.40537336    -0.91100
O998        O  0.32691814  0.95727534  0.39945934    -0.77100
O999        O  0.31319020  0.95553359  0.44211037    -0.86600
O1000       O  0.29176142  0.94066599  0.41057505    -0.86200
O1001       O  0.27711634  0.95607744  0.46361868    -0.73000
O1002       O  0.25779862  0.94298242  0.43578137    -0.85100
Zr1003     Zr  0.29711226  0.89556736  0.45491209     2.26400
Zr1004     Zr  0.30866552  0.94493387  0.47401567     2.06300
Zr1005     Zr  0.26797741  0.91722167  0.41449129     2.10000
Zr1006     Zr  0.32343183  0.93062003  0.42040859     1.78800
O1007       O  0.23507116  0.90736471  0.40796736    -0.93900
O1008       O  0.35446103  0.94466237  0.42841410    -0.41700
O1009       O  0.30020418  0.90618703  0.42283102    -0.78400
O1010       O  0.32069425  0.91985341  0.45242879    -0.97100
O1011       O  0.28620315  0.91998413  0.47737198    -0.90400
O1012       O  0.26487098  0.90601193  0.44618186    -0.93200
C1013       C  0.31650775  0.97198494  0.39487028     1.00500
C1014       C  0.25076894  0.95900276  0.39318974     1.13500
C1015       C  0.31102520  0.98965639  0.46356020     1.04300
O1016       O  0.34179897  0.95508831  0.47811440    -0.95400
O1017       O  0.32646454  0.92272785  0.49399439    -0.91100
O1018       O  0.32091710  0.89355661  0.48028049    -0.84300
C1019       C  0.32921809  0.90448018  0.49261257     1.10900
O1020       O  0.23092414  0.95652457  0.47543815    -0.97300
Zr1021     Zr  0.25471932  0.93078857  0.46765221     1.88900
O1022       O  0.27437875  0.87984281  0.47417644    -0.74000
O1023       O  0.29992095  0.95391949  0.50684374    -0.53300
O1024       O  0.25369627  0.93951658  0.50153802    -0.97900
O1025       O  0.22169915  0.92374840  0.45783901    -0.55100
O1026       O  0.24827238  0.89946052  0.48194076    -0.74500
C1027       C  0.25787842  0.88322164  0.48208612     0.97800
O1028       O  0.31287411  0.86373457  0.45646870    -0.63300
O1029       O  0.27662081  0.90458334  0.38271476    -0.58100
O1030       O  0.29500674  0.87287115  0.42798644    -0.94800
O1031       O  0.26579790  0.88352326  0.41937892    -0.93200
O1032       O  0.32619283  0.91601687  0.38849158    -0.93600
O1033       O  0.34975036  0.90634309  0.41758834    -0.92400
C1034       C  0.28037935  0.87220341  0.41683383     1.16700
H1035       H  0.29172984  0.94390248  0.39732225     0.32600
H1036       H  0.33350276  0.91530796  0.45629705     0.43500
H1037       H  0.25537290  0.89636542  0.44719018     0.37000
H1038       H  0.27209513  0.96675838  0.47149306     0.33500
H1039       H  0.36165800  0.94473857  0.41616908     0.25300
H1040       H  0.28700172  0.96054434  0.50595976     0.31200
H1041       H  0.24897431  0.92804614  0.50786425     0.37100
H1042       H  0.33476844  0.92441732  0.38138937     0.31600
H1043       H  0.26424158  0.90486394  0.37554696     0.30500
H1044       H  0.22688935  0.91504469  0.41719372     0.32100
H1045       H  0.21469165  0.92153217  0.46988900     0.31100
H1046       H  0.35344649  0.90332733  0.43082038     0.35100
H1047       H  0.32704404  0.86577434  0.45615780     0.27800
H1048       H  0.27012250  0.00640132  0.43206665     0.32100
H1049       H  0.23544846  0.96769319  0.46846341     0.34900
H1050       H  0.28439276  0.91461213  0.37696179     0.27500
H1051       H  0.31019306  0.85925757  0.46945785     0.40400
H1052       H  0.34910681  0.94886381  0.46731047     0.30500
H1053       H  0.35129294  0.95838366  0.43146101     0.38100
H1054       H  0.22276718  0.91090982  0.45144617     0.29900
H1055       H  0.29724893  0.94167307  0.51295573     0.30000
H1056       H  0.26526083  0.99891669  0.45232588     0.30200
Zr1057     Zr  0.40134120  0.89635607  0.28118696     2.17500
O1058       O  0.39233717  0.86281403  0.28041401    -0.52100
O1059       O  0.42863041  0.88235780  0.26447300    -0.75300
O1060       O  0.37985733  0.88437634  0.25643098    -0.82100
O1061       O  0.43460463  0.89856654  0.31965679    -0.83800
O1062       O  0.36442637  0.90896774  0.24146555    -0.79500
O1063       O  0.40969148  0.88082171  0.31117831    -0.91100
O1064       O  0.44622310  0.90589320  0.25173431    -0.77100
O1065       O  0.40518185  0.91873305  0.25641787    -0.86600
O1066       O  0.42919170  0.91475330  0.28865334    -0.86200
O1067       O  0.37121455  0.91465174  0.28047229    -0.73000
O1068       O  0.39400965  0.91107680  0.31170695    -0.85100
Zr1069     Zr  0.39357244  0.97202778  0.29730959     2.26400
Zr1070     Zr  0.37603485  0.93824106  0.25685337     2.06300
Zr1071     Zr  0.42147343  0.93053970  0.31858319     2.10000
Zr1072     Zr  0.43219639  0.93737149  0.26476219     1.78800
O1073       O  0.41704249  0.92070371  0.35129300    -0.93900
O1074       O  0.43253474  0.94215271  0.23049085    -0.41700
O1075       O  0.42442018  0.95410379  0.29498740    -0.78400
O1076       O  0.40285284  0.95767970  0.26609861    -0.97100
O1077       O  0.36752828  0.95243571  0.28730322    -0.90400
O1078       O  0.39095721  0.94757992  0.31972863    -0.93200
C1079       C  0.44254923  0.88801486  0.25430582     1.00500
C1080       C  0.42350075  0.88488885  0.32270615     1.13500
C1081       C  0.36778024  0.89099527  0.24409978     1.04300
O1082       O  0.38450671  0.93936978  0.22318350    -0.95400
O1083       O  0.36853440  0.97151582  0.25046443    -0.91100
O1084       O  0.36672906  0.98664829  0.27907514    -0.84300
C1085       C  0.36052378  0.98399741  0.26194246     1.10900
O1086       O  0.34604010  0.90009166  0.31425128    -0.97300
Zr1087     Zr  0.36406250  0.92923621  0.31073752     1.88900
O1088       O  0.36784401  0.98431493  0.31928566    -0.74000
O1089       O  0.34166289  0.94454788  0.25063689    -0.53300
O1090       O  0.33087598  0.93423640  0.29953747    -0.97900
O1091       O  0.36100057  0.91977982  0.34373145    -0.55100
O1092       O  0.35117642  0.95793665  0.32658488    -0.74500
C1093       C  0.35411628  0.97594755  0.32797598     0.97800
O1094       O  0.40671058  0.00279837  0.28939522    -0.63300
O1095       O  0.45584796  0.93664394  0.32285637    -0.58100
O1096       O  0.40745784  0.98245185  0.32879389    -0.94800
O1097       O  0.42443281  0.95697213  0.34089481    -0.93200
O1098       O  0.46588831  0.93782720  0.27529189    -0.93600
O1099       O  0.45069545  0.96539454  0.25739151    -0.92400
C1100       C  0.41740083  0.97416610  0.34213368     1.16700
H1101       H  0.44115460  0.90715711  0.28892658     0.32600
H1102       H  0.40437594  0.96776565  0.25718199     0.43500
H1103       H  0.38831541  0.95267238  0.33245567     0.37000
H1104       H  0.36032203  0.90679081  0.27745202     0.33500
H1105       H  0.44647490  0.94130272  0.22687198     0.25300
H1106       H  0.34027180  0.94265013  0.23667323     0.31200
H1107       H  0.32932533  0.92453662  0.28911504     0.37100
H1108       H  0.47033438  0.92419036  0.27552244     0.31600
H1109       H  0.45927164  0.93063470  0.33506300     0.30500
H1110       H  0.43034399  0.91955671  0.35655295     0.32100
H1111       H  0.35021246  0.92801527  0.34911958     0.31100
H1112       H  0.44285222  0.97640417  0.26287297     0.35100
H1113       H  0.40145090  0.00549357  0.27658489     0.27800
H1114       H  0.38256260  0.86189304  0.29071756     0.32100
H1115       H  0.35503313  0.88960765  0.30952558     0.34900
H1116       H  0.46257142  0.92834090  0.31303089     0.27500
H1117       H  0.39974318  0.01220969  0.29805350     0.40400
H1118       H  0.39084434  0.95178445  0.22188396     0.30500
H1119       H  0.42713499  0.93030144  0.22483616     0.38100
H1120       H  0.37280615  0.92448679  0.35010484     0.29900
H1121       H  0.33493153  0.93377702  0.25631379     0.30000
H1122       H  0.40391314  0.85540566  0.28483434     0.30200
Zr1123     Zr  0.19169719  0.70803088  0.64552505     2.17500
O1124       O  0.19251166  0.71810177  0.61247694    -0.52100
O1125       O  0.20594515  0.73869145  0.65109254    -0.75300
O1126       O  0.16037006  0.72141917  0.63434223    -0.82100
O1127       O  0.21615691  0.65922178  0.64013207    -0.83800
O1128       O  0.14518810  0.73395912  0.66102733    -0.79500
O1129       O  0.20901863  0.68579609  0.62329636    -0.91100
O1130       O  0.23565378  0.73707569  0.66160549    -0.77100
O1131       O  0.19306909  0.73064921  0.67167196    -0.86600
O1132       O  0.22120396  0.70107516  0.66272818    -0.86200
O1133       O  0.16373195  0.70014749  0.66372379    -0.73000
O1134       O  0.19121169  0.67505238  0.65479763    -0.85100
Zr1135     Zr  0.18896649  0.68406464  0.71741133     2.26400
Zr1136     Zr  0.16446080  0.72433247  0.68877922     2.06300
Zr1137     Zr  0.21977458  0.66904219  0.67328283     2.10000
Zr1138     Zr  0.22165106  0.72284784  0.68979715     1.78800
O1139       O  0.23256268  0.63660318  0.66598968    -0.93900
O1140       O  0.21737727  0.75703482  0.69757143    -0.41700
O1141       O  0.21884336  0.69046767  0.70048048    -0.78400
O1142       O  0.19250432  0.71713250  0.70802673    -0.97100
O1143       O  0.16173189  0.69147360  0.69772659    -0.90400
O1144       O  0.19142880  0.66173687  0.69102790    -0.93200
C1145       C  0.22388515  0.74088710  0.64815898     1.00500
C1146       C  0.21323670  0.66779765  0.62439708     1.13500
C1147       C  0.14571008  0.72983610  0.64300463     1.04300
O1148       O  0.17516472  0.75723625  0.69001960    -0.95400
O1149       O  0.15638428  0.72576263  0.72228874    -0.91100
O1150       O  0.15775343  0.69538261  0.73180781    -0.84300
C1151       C  0.14911340  0.71198390  0.73104635     1.10900
O1152       O  0.14685552  0.66455430  0.64212408    -0.97300
Zr1153     Zr  0.16345788  0.66780842  0.67265176     1.88900
O1154       O  0.16924370  0.65665009  0.72598970    -0.74000
O1155       O  0.13365535  0.74010463  0.69861756    -0.53300
O1156       O  0.12859793  0.66282438  0.67118285    -0.97900
O1157       O  0.17562638  0.63636400  0.66101857    -0.55100
O1158       O  0.15271243  0.64954264  0.69885840    -0.74500
C1159       C  0.15681919  0.64693671  0.71634791     0.97800
O1160       O  0.19913814  0.69465965  0.74910019    -0.63300
O1161       O  0.25379979  0.67657632  0.66882544    -0.58100
O1162       O  0.21289581  0.65939245  0.72716523    -0.94800
O1163       O  0.22842963  0.64907576  0.69991680    -0.93200
O1164       O  0.25680602  0.71741486  0.68992567    -0.93600
O1165       O  0.23691431  0.72909664  0.72059092    -0.92400
C1166       C  0.22493175  0.64801065  0.71783997     1.16700
H1167       H  0.23231348  0.70214224  0.65444786     0.32600
H1168       H  0.19245333  0.72543031  0.71926408     0.43500
H1169       H  0.19189046  0.64853919  0.69493328     0.37000
H1170       H  0.15145450  0.69969187  0.65635443     0.33500
H1171       H  0.21069131  0.75774100  0.71010618     0.25300
H1172       H  0.13283552  0.75229193  0.69173473     0.31200
H1173       H  0.12725698  0.64872318  0.67076806     0.37100
H1174       H  0.25887869  0.70468485  0.69558210     0.31600
H1175       H  0.26128756  0.66661375  0.67569035     0.30500
H1176       H  0.24618087  0.63807148  0.66184999     0.32100
H1177       H  0.17814427  0.63779010  0.64723106     0.31100
H1178       H  0.22607351  0.72997455  0.72993115     0.35100
H1179       H  0.19758279  0.68335321  0.75710180     0.27800
H1180       H  0.18871712  0.73192532  0.61300455     0.32100
H1181       H  0.15742026  0.66351276  0.63250574     0.34900
H1182       H  0.25646900  0.67353484  0.65515918     0.27500
H1183       H  0.21339169  0.69591733  0.74795111     0.40400
H1184       H  0.17323022  0.76147789  0.70351664     0.30500
H1185       H  0.23065327  0.76143458  0.70026896     0.38100
H1186       H  0.16419941  0.62814173  0.66152715     0.29900
H1187       H  0.12328855  0.73228264  0.69304342     0.30000
H1188       H  0.20637040  0.71777104  0.60865732     0.30200
Zr1189     Zr  0.19997877  0.55980873  0.55666915     2.17500
O1190       O  0.23366181  0.55155333  0.54839548    -0.52100
O1191       O  0.20351463  0.59031697  0.57340937    -0.75300
O1192       O  0.21020428  0.58798632  0.53868302    -0.82100
O1193       O  0.19613503  0.52661616  0.59888193    -0.83800
O1194       O  0.18608774  0.59390975  0.51740973    -0.79500
O1195       O  0.21535767  0.54954882  0.58729678    -0.91100
O1196       O  0.17344025  0.60103314  0.58246406    -0.77100
O1197       O  0.17271394  0.58036778  0.54969186    -0.86600
O1198       O  0.17638620  0.55535733  0.58106985    -0.86200
O1199       O  0.18904368  0.54929642  0.52514797    -0.73000
O1200       O  0.19127795  0.52641482  0.55274970    -0.85100
Zr1201     Zr  0.12959191  0.53558918  0.54296122     2.26400
Zr1202     Zr  0.16172284  0.57018301  0.51887411     2.06300
Zr1203     Zr  0.16858086  0.52221771  0.57816154     2.10000
Zr1204     Zr  0.15006481  0.57677955  0.57483997     1.78800
O1205       O  0.18707205  0.49184051  0.57626010    -0.93900
O1206       O  0.12962127  0.60468050  0.56708185    -0.41700
O1207       O  0.14127404  0.54390189  0.57402828    -0.78400
O1208       O  0.13806980  0.56845051  0.54397897    -0.97100
O1209       O  0.15083049  0.53847268  0.51640390    -0.90400
O1210       O  0.15590095  0.51339213  0.54790719    -0.93200
C1211       C  0.19180557  0.60316233  0.58078916     1.00500
C1212       C  0.21083545  0.53735305  0.60010642     1.13500
C1213       C  0.20188329  0.59826041  0.52576876     1.04300
O1214       O  0.15199558  0.59891989  0.50194732    -0.95400
O1215       O  0.12924734  0.57272547  0.50586338    -0.91100
O1216       O  0.11073950  0.54956414  0.51762077    -0.84300
C1217       C  0.11328432  0.56380255  0.50686694     1.10900
O1218       O  0.20793579  0.49938213  0.51615130    -0.97300
Zr1219     Zr  0.17720892  0.51699315  0.52202923     1.88900
O1220       O  0.12477339  0.50680283  0.52510271    -0.74000
O1221       O  0.17430494  0.55892360  0.48788422    -0.53300
O1222       O  0.19109993  0.52140733  0.49055548    -0.97900
O1223       O  0.17765764  0.48213696  0.52465036    -0.55100
O1224       O  0.14798881  0.50770966  0.50262555    -0.74500
C1225       C  0.13057123  0.50379472  0.50810509     0.97800
O1226       O  0.09623372  0.54346262  0.55295785    -0.63300
O1227       O  0.15768428  0.51723742  0.61081668    -0.58100
O1228       O  0.11771156  0.51054649  0.56163872    -0.94800
O1229       O  0.14129270  0.50124905  0.58217358    -0.93200
O1230       O  0.15314664  0.58053593  0.60934591    -0.93600
O1231       O  0.11827095  0.57807987  0.59034840    -0.92400
C1232       C  0.12433727  0.49979228  0.57471347     1.16700
H1233       H  0.18083846  0.55893026  0.59350708     0.32600
H1234       H  0.12680303  0.57653717  0.54160486     0.43500
H1235       H  0.15187759  0.50020676  0.54781642     0.37000
H1236       H  0.19929652  0.55105069  0.51595767     0.33500
H1237       H  0.12979698  0.61323716  0.57868062     0.25300
H1238       H  0.16357691  0.56162932  0.47889078     0.31200
H1239       H  0.18025430  0.51918353  0.48160974     0.37100
H1240       H  0.14838896  0.56844660  0.61442122     0.31600
H1241       H  0.16845277  0.52066835  0.61945081     0.30500
H1242       H  0.17841304  0.48249652  0.58195697     0.32100
H1243       H  0.16402431  0.47837012  0.52284113     0.31100
H1244       H  0.10923098  0.57333402  0.58046823     0.35100
H1245       H  0.08874250  0.53222126  0.54881117     0.27800
H1246       H  0.23432244  0.55293946  0.53439726     0.32100
H1247       H  0.21373571  0.49788299  0.52894756     0.34900
H1248       H  0.14756603  0.52744488  0.61330377     0.27500
H1249       H  0.09637632  0.54295527  0.56704686     0.40400
H1250       H  0.15923900  0.59794699  0.48970012     0.30500
H1251       H  0.13699654  0.61134308  0.55737617     0.38100
H1252       H  0.18044056  0.47975226  0.53822818     0.29900
H1253       H  0.18437889  0.56813431  0.48467655     0.30000
H1254       H  0.23493148  0.53754045  0.55019659     0.30200
Zr1255     Zr  0.05079304  0.71018010  0.55973036     2.17500
O1256       O  0.04333379  0.74126647  0.54610715    -0.52100
O1257       O  0.07295495  0.72012965  0.58393574    -0.75300
O1258       O  0.03451921  0.72658841  0.58816023    -0.82100
O1259       O  0.09482604  0.69363392  0.52824214    -0.83800
O1260       O  0.01392943  0.70479901  0.59928178    -0.79500
O1261       O  0.08243756  0.71913352  0.54609209    -0.91100
O1262       O  0.08090352  0.69240902  0.59867175    -0.77100
O1263       O  0.04128559  0.68931997  0.58399155    -0.86600
O1264       O  0.07385946  0.68371659  0.55951098    -0.86200
O1265       O  0.01838742  0.70033234  0.55113896    -0.73000
O1266       O  0.04931034  0.69470193  0.52841256    -0.85100
Zr1267     Zr  0.03265044  0.63872921  0.54692615     2.26400
Zr1268     Zr  0.00952249  0.67915075  0.57586923     2.06300
Zr1269     Zr  0.07254045  0.66821626  0.52873769     2.10000
Zr1270     Zr  0.06518043  0.66426820  0.58474295     1.78800
O1271       O  0.07637250  0.67733480  0.49573297    -0.93900
O1272       O  0.05422497  0.66186897  0.61758687    -0.41700
O1273       O  0.06485356  0.64784939  0.55426999    -0.78400
O1274       O  0.03316924  0.65330908  0.57806029    -0.97100
O1275       O  0.00813490  0.66335930  0.54553447    -0.90400
O1276       O  0.04115209  0.65804543  0.52120144    -0.93200
C1277       C  0.08207260  0.71065875  0.59657037     1.00500
C1278       C  0.09581075  0.71048743  0.53566413     1.13500
C1279       C  0.02249510  0.72080884  0.60091163     1.04300
O1280       O  0.99062935  0.67794155  0.60520521    -0.95400
O1281       O  0.99191573  0.64970827  0.58064807    -0.91100
O1282       O  0.00431131  0.62635941  0.56065639    -0.84300
C1283       C  0.99216978  0.63254472  0.57335056     1.10900
O1284       O  0.00925009  0.71515732  0.50917774    -0.97300
Zr1285     Zr  0.01753577  0.68321648  0.52043565     1.88900
O1286       O  0.01221680  0.62875902  0.52162440    -0.74000
O1287       O  0.97928235  0.69454713  0.56540680    -0.53300
O1288       O  0.98243375  0.68859631  0.51835229    -0.97900
O1289       O  0.02941390  0.68788027  0.48815840    -0.55100
O1290       O  0.00659814  0.65410284  0.50243365    -0.74500
C1291       C  0.00591311  0.63609838  0.50633189     0.97800
O1292       O  0.04034689  0.60739032  0.56007223    -0.63300
O1293       O  0.10496723  0.65298896  0.52958517    -0.58100
O1294       O  0.05157783  0.61926645  0.52494915    -0.94800
O1295       O  0.07482387  0.63695926  0.51218345    -0.93200
O1296       O  0.09959508  0.65485736  0.58637721    -0.93600
O1297       O  0.07306635  0.63228267  0.59607720    -0.92400
C1298       C  0.06551487  0.62137084  0.51331233     1.16700
H1299       H  0.08691214  0.68757157  0.56227680     0.32600
H1300       H  0.02943886  0.64436833  0.58760231     0.43500
H1301       H  0.04149606  0.65124694  0.50898938     0.37000
H1302       H  0.00966193  0.71140627  0.55114267     0.33500
H1303       H  0.06622458  0.66253926  0.62528503     0.25300
H1304       H  0.96904008  0.68590041  0.56953652     0.31200
H1305       H  0.97758207  0.67724106  0.51127331     0.37100
H1306       H  0.10671186  0.66694183  0.58616827     0.31600
H1307       H  0.10899757  0.65427652  0.54307356     0.30500
H1308       H  0.09013796  0.67396231  0.49258659     0.32100
H1309       H  0.03623307  0.67562365  0.48435596     0.31100
H1310       H  0.06157448  0.62468709  0.59285673     0.35100
H1311       H  0.05471172  0.60674484  0.56108879     0.27800
H1312       H  0.05330103  0.74977088  0.55150247     0.32100
H1313       H  0.01669942  0.72394285  0.51751861     0.34900
H1314       H  0.11357461  0.66152037  0.52263509     0.27500
H1315       H  0.03571238  0.60830487  0.57345706     0.40400
H1316       H  0.99862182  0.66979877  0.61368971     0.30500
H1317       H  0.04697000  0.67412447  0.62047258     0.38100
H1318       H  0.03994418  0.69714444  0.48967566     0.29900
H1319       H  0.97753736  0.70611850  0.57382572     0.30000
H1320       H  0.03105228  0.74578952  0.55239242     0.30200
Zr1321     Zr  0.05813057  0.56778303  0.70657578     2.17500
O1322       O  0.04676683  0.56004556  0.73824983    -0.52100
O1323       O  0.08540441  0.58893124  0.71548651    -0.75300
O1324       O  0.08542683  0.54901593  0.72183518    -0.82100
O1325       O  0.01647868  0.60453527  0.69916551    -0.83800
O1326       O  0.09854788  0.52934983  0.69844213    -0.79500
O1327       O  0.03783772  0.59432899  0.72158271    -0.91100
O1328       O  0.09972960  0.59787815  0.68798952    -0.77100
O1329       O  0.08373077  0.56312590  0.68382238    -0.86600
O1330       O  0.05439050  0.59238162  0.68385454    -0.86200
O1331       O  0.05306164  0.53621829  0.69207073    -0.73000
O1332       O  0.02843146  0.56181631  0.69049804    -0.85100
Zr1333     Zr  0.04627855  0.55419912  0.63180191     2.26400
Zr1334     Zr  0.07930095  0.53219594  0.66978128     2.06300
Zr1335     Zr  0.02327984  0.58700406  0.66991525     2.10000
Zr1336     Zr  0.08025887  0.58772989  0.66132181     1.78800
O1337       O  0.98973584  0.58205189  0.67882203    -0.93900
O1338       O  0.11378348  0.58050434  0.65152352    -0.41700
O1339       O  0.04905753  0.58516345  0.64675694    -0.78400
O1340       O  0.07752773  0.55673791  0.64644346    -0.97100
O1341       O  0.04943256  0.52861709  0.65336901    -0.90400
O1342       O  0.01966078  0.55717102  0.65333084    -0.93200
C1343       C  0.09890702  0.59717945  0.70617535     1.00500
C1344       C  0.02347739  0.60527036  0.71601931     1.13500
C1345       C  0.09844096  0.53646217  0.71552443     1.04300
O1346       O  0.11356989  0.52868913  0.66109635    -0.95400
O1347       O  0.08239769  0.51287087  0.64110458    -0.91100
O1348       O  0.06482636  0.52698984  0.61794360    -0.84300
C1349       C  0.07620283  0.51355022  0.62400462     1.10900
O1350       O  0.00907663  0.51940621  0.70344056    -0.97300
Zr1351     Zr  0.02286560  0.53191998  0.67455167     1.88900
O1352       O  0.02490691  0.53146546  0.61824319    -0.74000
O1353       O  0.07622860  0.49882778  0.67832341    -0.53300
O1354       O  0.02737321  0.49731711  0.67877495    -0.97900
O1355       O  0.98801706  0.53946015  0.67693239    -0.55100
O1356       O  0.01178276  0.51605820  0.64314710    -0.74500
C1357       C  0.01425171  0.51863986  0.62491369     0.97800
O1358       O  0.05851502  0.56594536  0.60181361    -0.63300
O1359       O  0.01974185  0.62089487  0.66167071    -0.58100
O1360       O  0.02004626  0.57338178  0.61739466    -0.94800
O1361       O  0.00531611  0.59165832  0.64072532    -0.93200
O1362       O  0.07796991  0.62267669  0.66167723    -0.93600
O1363       O  0.08762574  0.59983497  0.62996511    -0.92400
C1364       C  0.00654730  0.58533021  0.62344054     1.16700
H1365       H  0.05492341  0.60500207  0.68978181     0.32600
H1366       H  0.08766702  0.55455214  0.63700472     0.43500
H1367       H  0.00740607  0.55634270  0.64687895     0.37000
H1368       H  0.05416305  0.52684382  0.70176662     0.33500
H1369       H  0.12074994  0.59241712  0.65446914     0.25300
H1370       H  0.08978364  0.49371413  0.67912412     0.31200
H1371       H  0.03578879  0.49269987  0.66799675     0.37100
H1372       H  0.09160966  0.62668998  0.66076359     0.31600
H1373       H  0.01056437  0.62691574  0.67116792     0.30500
H1374       H  0.98267432  0.59414829  0.67576181     0.32100
H1375       H  0.98195538  0.52722872  0.67987898     0.31100
H1376       H  0.07487368  0.60125360  0.62356942     0.35100
H1377       H  0.05101688  0.55914755  0.59182414     0.27800
H1378       H  0.05628746  0.56574082  0.74713652     0.32100
H1379       H  0.01000831  0.53010105  0.71296289     0.34900
H1380       H  0.03245707  0.62639334  0.66482021     0.27500
H1381       H  0.07189365  0.56035910  0.60053986     0.40400
H1382       H  0.11779702  0.51594476  0.66574360     0.30500
H1383       H  0.11878540  0.57123322  0.66089658     0.38100
H1384       H  0.98364357  0.54200878  0.66379310     0.29900
H1385       H  0.07136428  0.49914595  0.69160743     0.30000
H1386       H  0.04911800  0.54601316  0.73904092     0.30200
Zr1387     Zr  0.22281794  0.71847497  0.52502411     2.17500
O1388       O  0.21532647  0.69868792  0.55211914    -0.52100
O1389       O  0.18733865  0.71993016  0.52400942    -0.75300
O1390       O  0.22530696  0.72998923  0.55840327    -0.82100
O1391       O  0.23091368  0.67840160  0.48621371    -0.83800
O1392       O  0.23697901  0.76014304  0.55904650    -0.79500
O1393       O  0.22497437  0.68440086  0.51782873    -0.91100
O1394       O  0.17702886  0.74337700  0.50454070    -0.77100
O1395       O  0.21509899  0.75143742  0.52046218    -0.86600
O1396       O  0.21280092  0.72021375  0.49245999    -0.86200
O1397       O  0.25245078  0.73437988  0.53151303    -0.73000
O1398       O  0.24935495  0.70609707  0.50537749    -0.85100
Zr1399     Zr  0.26251642  0.75922635  0.47535658     2.26400
Zr1400     Zr  0.24488606  0.76753422  0.52641101     2.06300
Zr1401     Zr  0.23994663  0.70926691  0.47268132     2.10000
Zr1402     Zr  0.20559792  0.75324441  0.48785015     1.78800
O1403       O  0.26477526  0.68616213  0.46072522    -0.93900
O1404       O  0.18940804  0.78311431  0.49926976    -0.41700
O1405       O  0.23288434  0.74284984  0.46830976    -0.78400
O1406       O  0.23448386  0.77020221  0.49391947    -0.97100
O1407       O  0.27236287  0.75620586  0.50761522    -0.90400
O1408       O  0.26939582  0.72572190  0.47912217    -0.93200
C1409       C  0.17384424  0.73036453  0.51650867     1.00500
C1410       C  0.22647776  0.67311094  0.50313508     1.13500
C1411       C  0.23074588  0.74534531  0.56725338     1.04300
O1412       O  0.22403662  0.79288899  0.54096595    -0.95400
O1413       O  0.25141156  0.79896397  0.51467775    -0.91100
O1414       O  0.26215832  0.79384321  0.48419410    -0.84300
C1415       C  0.25700144  0.80497047  0.49852440     1.10900
O1416       O  0.28286707  0.69800009  0.53532344    -0.97300
Zr1417     Zr  0.27843007  0.72260351  0.51167170     1.88900
O1418       O  0.29816710  0.75304301  0.47402941    -0.74000
O1419       O  0.27373889  0.77583600  0.54450250    -0.53300
O1420       O  0.29769126  0.73441226  0.53833058    -0.97900
O1421       O  0.29587113  0.69399077  0.49889780    -0.55100
O1422       O  0.30748086  0.73296954  0.49746684    -0.74500
C1423       C  0.31112499  0.74353487  0.48350938     0.97800
O1424       O  0.27327253  0.78291698  0.45296393    -0.63300
O1425       O  0.21538197  0.69529806  0.45206362    -0.58100
O1426       O  0.25652313  0.75002062  0.44198654    -0.94800
O1427       O  0.24495903  0.71985125  0.43959467    -0.93200
O1428       O  0.18788809  0.73766649  0.46200859    -0.93600
O1429       O  0.19599673  0.77579523  0.46339795    -0.92400
C1430       C  0.25075767  0.73543583  0.43217325     1.16700
H1431       H  0.20165799  0.71250100  0.48994840     0.32600
H1432       H  0.23019607  0.78308278  0.49101638     0.43500
H1433       H  0.27958130  0.72106512  0.47051460     0.37000
H1434       H  0.25718136  0.73234778  0.54422056     0.33500
H1435       H  0.17530854  0.78077331  0.49856701     0.25300
H1436       H  0.28050342  0.78510203  0.53662380     0.31200
H1437       H  0.31017030  0.72694789  0.53734366     0.37100
H1438       H  0.19750330  0.73574390  0.45152208     0.31600
H1439       H  0.22058013  0.68218683  0.44876664     0.30500
H1440       H  0.27100902  0.69241757  0.44991040     0.32100
H1441       H  0.30107299  0.69755383  0.48634996     0.31100
H1442       H  0.18170332  0.77491021  0.46218937     0.35100
H1443       H  0.28361328  0.77628069  0.44514667     0.27800
H1444       H  0.22667014  0.68972386  0.55364601     0.32100
H1445       H  0.26957030  0.69369275  0.53793283     0.34900
H1446       H  0.20410092  0.69327711  0.46048237     0.27500
H1447       H  0.26237172  0.78516598  0.44402944     0.40400
H1448       H  0.23207139  0.79875771  0.55111888     0.30500
H1449       H  0.19221604  0.78387029  0.51310441     0.38100
H1450       H  0.28555363  0.68488806  0.49573108     0.29900
H1451       H  0.26872123  0.78356900  0.55563838     0.30000
H1452       H  0.20452434  0.69052159  0.54800981     0.30200
Zr1453     Zr  0.22333507  0.53111386  0.72689161     2.17500
O1454       O  0.19865294  0.55546936  0.71868204    -0.52100
O1455       O  0.22444117  0.53033490  0.69139219    -0.75300
O1456       O  0.23553165  0.56342053  0.72881372    -0.82100
O1457       O  0.18287039  0.49812451  0.74245494    -0.83800
O1458       O  0.26670974  0.56398837  0.73943208    -0.79500
O1459       O  0.18818632  0.52744512  0.73076051    -0.91100
O1460       O  0.24774718  0.50876427  0.68137889    -0.77100
O1461       O  0.25621183  0.52393181  0.71774325    -0.86600
O1462       O  0.22386016  0.49795945  0.71795256    -0.86200
O1463       O  0.24243566  0.53742945  0.75535911    -0.73000
O1464       O  0.21389757  0.51469265  0.75508178    -0.85100
Zr1465     Zr  0.26755324  0.47991108  0.76474246     2.26400
Zr1466     Zr  0.27548768  0.53015343  0.74574576     2.06300
Zr1467     Zr  0.21479219  0.48145047  0.74613551     2.10000
Zr1468     Zr  0.25682343  0.49057590  0.70925408     1.78800
O1469       O  0.19212897  0.47047882  0.76993066    -0.93900
O1470       O  0.28768596  0.49522847  0.69308448    -0.41700
O1471       O  0.24785285  0.47354326  0.73704218    -0.78400
O1472       O  0.27670889  0.49664987  0.73645755    -0.97100
O1473       O  0.26659765  0.51317826  0.77366163    -0.90400
O1474       O  0.23460020  0.48672717  0.77407621    -0.93200
C1475       C  0.23476208  0.52183215  0.67800915     1.00500
C1476       C  0.17671737  0.51458713  0.73652773     1.13500
C1477       C  0.25077751  0.57233616  0.73387959     1.04300
O1478       O  0.29769015  0.54015297  0.72111556    -0.95400
O1479       O  0.30747373  0.51512827  0.75268408    -0.91100
O1480       O  0.30256757  0.48487272  0.76262757    -0.84300
C1481       C  0.31369490  0.49850835  0.75810917     1.10900
O1482       O  0.20902613  0.54523065  0.78936920    -0.97300
Zr1483     Zr  0.23365771  0.51993119  0.78283102     1.88900
O1484       O  0.26739667  0.48147682  0.80025514    -0.74000
O1485       O  0.28955750  0.55024904  0.77072408    -0.53300
O1486       O  0.24303527  0.54737319  0.80255935    -0.97900
O1487       O  0.20776251  0.50569308  0.80089374    -0.55100
O1488       O  0.25188282  0.50884912  0.81050409    -0.74500
C1489       C  0.26229897  0.49368557  0.81374125     0.97800
O1490       O  0.29209965  0.45521964  0.77236599    -0.63300
O1491       O  0.19921256  0.46220728  0.72139276    -0.58100
O1492       O  0.25580301  0.44712051  0.75990671    -0.94800
O1493       O  0.22418590  0.44781129  0.75047547    -0.93200
O1494       O  0.23920685  0.46762656  0.68969695    -0.93600
O1495       O  0.27535562  0.46091741  0.70168506    -0.92400
C1496       C  0.24000308  0.43880368  0.75511186     1.16700
H1497       H  0.21508979  0.49557036  0.70743465     0.32600
H1498       H  0.28940555  0.49255806  0.73186656     0.43500
H1499       H  0.23098584  0.47883404  0.78450754     0.37000
H1500       H  0.24085964  0.55052737  0.76000227     0.33500
H1501       H  0.28445730  0.49578065  0.67936274     0.25300
H1502       H  0.29406732  0.54121359  0.78053718     0.31200
H1503       H  0.25546180  0.55127018  0.79695622     0.37100
H1504       H  0.23462910  0.45815160  0.69877680     0.31600
H1505       H  0.18888740  0.45554625  0.72818327     0.30500
H1506       H  0.20024492  0.46597362  0.78063051     0.32100
H1507       H  0.19633643  0.50614730  0.79234652     0.31100
H1508       H  0.28629707  0.46084351  0.71081715     0.35100
H1509       H  0.28598179  0.44709913  0.78187749     0.27800
H1510       H  0.20352271  0.56146445  0.70706578     0.32100
H1511       H  0.19814158  0.54214613  0.78073040     0.34900
H1512       H  0.19213477  0.47151168  0.71333647     0.27500
H1513       H  0.29363250  0.44690948  0.76072552     0.40400
H1514       H  0.30854432  0.54598319  0.72819012     0.30500
H1515       H  0.29116057  0.50848438  0.69676414     0.38100
H1516       H  0.20447377  0.51514874  0.81131684     0.29900
H1517       H  0.30162892  0.55492597  0.76502281     0.30000
H1518       H  0.19905555  0.56568411  0.72876192     0.30200
Zr1519     Zr  0.55861048  0.51935227  0.18198617     2.17500
O1520       O  0.54975753  0.48782756  0.19261835    -0.52100
O1521       O  0.58307996  0.51120251  0.15696646    -0.75300
O1522       O  0.54064418  0.50159193  0.15725743    -0.82100
O1523       O  0.58974768  0.52765175  0.22606342    -0.83800
O1524       O  0.52187752  0.52427054  0.14290488    -0.79500
O1525       O  0.58246753  0.50476123  0.20375410    -0.91100
O1526       O  0.60243785  0.53682189  0.15662353    -0.77100
O1527       O  0.55781708  0.54176450  0.15687007    -0.86600
O1528       O  0.58269233  0.54222298  0.18943139    -0.86200
O1529       O  0.52606140  0.53375501  0.18324265    -0.73000
O1530       O  0.54914565  0.53476742  0.21216398    -0.85100
Zr1531     Zr  0.54133527  0.59314436  0.19258737     2.26400
Zr1532     Zr  0.52547955  0.55562874  0.15757956     2.06300
Zr1533     Zr  0.57346984  0.55775672  0.21901150     2.10000
Zr1534     Zr  0.58219975  0.56435966  0.16446049     1.78800
O1535       O  0.56774499  0.55324894  0.25282096    -0.93900
O1536       O  0.58842366  0.56561404  0.13025762    -0.41700
O1537       O  0.57363420  0.58005170  0.19388542    -0.78400
O1538       O  0.55026920  0.57836083  0.16265661    -0.97100
O1539       O  0.51614804  0.57145050  0.18684563    -0.90400
O1540       O  0.54194339  0.57265723  0.21903310    -0.93200
C1541       C  0.59799863  0.52001360  0.15101717     1.00500
C1542       C  0.59178674  0.51067595  0.21862330     1.13500
C1543       C  0.52807927  0.50688759  0.14473309     1.04300
O1544       O  0.52382356  0.55565940  0.12290234    -0.95400
O1545       O  0.51500162  0.58699666  0.14641397    -0.91100
O1546       O  0.51944073  0.60846192  0.17058961    -0.84300
C1547       C  0.51338956  0.60402993  0.15387289     1.10900
O1548       O  0.50208293  0.52092484  0.22113611    -0.97300
Zr1549     Zr  0.51736294  0.55058180  0.21291671     1.88900
O1550       O  0.51602696  0.60558556  0.21293496    -0.74000
O1551       O  0.49022288  0.55362737  0.15833339    -0.53300
O1552       O  0.48298292  0.54926487  0.20498587    -0.97900
O1553       O  0.52086944  0.54330673  0.24651876    -0.55100
O1554       O  0.50291233  0.58061238  0.22806465    -0.74500
C1555       C  0.50465485  0.59872553  0.22516773     0.97800
O1556       O  0.55414439  0.62333595  0.18217100    -0.63300
O1557       O  0.60787122  0.56436840  0.22253530    -0.58100
O1558       O  0.55777891  0.60982693  0.21758838    -0.94800
O1559       O  0.57821206  0.58961123  0.23311087    -0.93200
O1560       O  0.61342250  0.57355685  0.17764178    -0.93600
O1561       O  0.59031020  0.59502591  0.15124589    -0.92400
C1562       C  0.57098549  0.60644972  0.22991139     1.16700
H1563       H  0.59550076  0.53627063  0.19053295     0.32600
H1564       H  0.55033779  0.58769078  0.15276408     0.43500
H1565       H  0.53978358  0.57957782  0.23097434     0.37000
H1566       H  0.51667395  0.52398503  0.18087749     0.33500
H1567       H  0.60101951  0.55860509  0.12792294     0.25300
H1568       H  0.48535011  0.56667449  0.16230096     0.31200
H1569       H  0.47898220  0.56262244  0.20204190     0.37100
H1570       H  0.61051289  0.58475076  0.18633904     0.31600
H1571       H  0.61117088  0.56055193  0.23563625     0.30500
H1572       H  0.57963232  0.55783024  0.25915518     0.32100
H1573       H  0.52561643  0.55521522  0.25265111     0.31100
H1574       H  0.59127680  0.60394803  0.16242037     0.35100
H1575       H  0.56817659  0.62262666  0.18530428     0.27800
H1576       H  0.55409821  0.47859189  0.18234865     0.32100
H1577       H  0.50964988  0.51070649  0.21398990     0.34900
H1578       H  0.61485167  0.55472095  0.21415519     0.27500
H1579       H  0.55392511  0.62245725  0.16805758     0.40400
H1580       H  0.53756514  0.55511480  0.11865534     0.30500
H1581       H  0.57859859  0.55737078  0.12428215     0.38100
H1582       H  0.53209883  0.53404826  0.24699002     0.29900
H1583       H  0.48650791  0.55232613  0.14473830     0.30000
H1584       H  0.53535692  0.48795908  0.19214381     0.30200
Zr1585     Zr  0.67851113  0.52826472  0.05195002     2.17500
O1586       O  0.68701049  0.49586794  0.04006669    -0.52100
O1587       O  0.65721570  0.52118473  0.07868479    -0.75300
O1588       O  0.69851118  0.51255511  0.07637465    -0.82100
O1589       O  0.63792024  0.53725443  0.01702347    -0.83800
O1590       O  0.71802738  0.53547779  0.08848998    -0.79500
O1591       O  0.64958141  0.51445533  0.03665605    -0.91100
O1592       O  0.64483925  0.54971699  0.09079435    -0.77100
O1593       O  0.68314981  0.55206728  0.07641134    -0.86600
O1594       O  0.65371250  0.55264008  0.04849629    -0.86200
O1595       O  0.71056406  0.54045297  0.04622843    -0.73000
O1596       O  0.68369931  0.54078616  0.02047787    -0.85100
Zr1597     Zr  0.69166773  0.60055657  0.03732786     2.26400
Zr1598     Zr  0.71443262  0.56459331  0.07080416     2.06300
Zr1599     Zr  0.65814541  0.56461078  0.01715681     2.10000
Zr1600     Zr  0.65780740  0.57572153  0.07330512     1.78800
O1601       O  0.66126538  0.55218747  0.98445207    -0.93900
O1602       O  0.66540803  0.58411779  0.10637681    -0.41700
O1603       O  0.66017913  0.58849017  0.04205003    -0.78400
O1604       O  0.68893216  0.58872961  0.06883506    -0.97100
O1605       O  0.71812549  0.57820512  0.04054364    -0.90400
O1606       O  0.68902884  0.57766366  0.01190975    -0.93200
C1607       C  0.64655897  0.53137755  0.09050417     1.00500
C1608       C  0.63675192  0.52103365  0.02490897     1.13500
C1609       C  0.71136190  0.51850298  0.08828056     1.04300
O1610       O  0.71938863  0.57245019  0.10446692    -0.95400
O1611       O  0.72909623  0.59539804  0.07612177    -0.91100
O1612       O  0.71684492  0.61595536  0.05449157    -0.84300
C1613       C  0.72783917  0.61193153  0.06852300     1.10900
O1614       O  0.72367117  0.52416560  0.00038174    -0.97300
Zr1615     Zr  0.71502920  0.55505683  0.01575177     1.88900
O1616       O  0.71584141  0.61028518  0.01593125    -0.74000
O1617       O  0.74880914  0.55680512  0.06532164    -0.53300
O1618       O  0.74863314  0.54543304  0.02231717    -0.97900
O1619       O  0.71307257  0.55392813  0.98102190    -0.55100
O1620       O  0.73390730  0.58351640  0.00711900    -0.74500
C1621       C  0.73075552  0.60192757  0.00823410     0.97800
O1622       O  0.67909067  0.63189767  0.04897014    -0.63300
O1623       O  0.62438724  0.57504942  0.01230802    -0.58100
O1624       O  0.67394368  0.61645962  0.01249202    -0.94800
O1625       O  0.65339891  0.59456592  0.00058192    -0.93200
O1626       O  0.62244498  0.57854722  0.07251880    -0.93600
O1627       O  0.64458408  0.60814016  0.07981282    -0.92400
C1628       C  0.66056612  0.61133574  0.00097435     1.16700
H1629       H  0.64084547  0.54791416  0.05041101     0.32600
H1630       H  0.69068139  0.59890352  0.07824443     0.43500
H1631       H  0.68995301  0.58336013  0.99962351     0.37000
H1632       H  0.72022710  0.53019088  0.04759877     0.33500
H1633       H  0.65410989  0.58000270  0.11382705     0.25300
H1634       H  0.75499868  0.55884998  0.07790541     0.31200
H1635       H  0.75613536  0.55000219  0.01136641     0.37100
H1636       H  0.61921313  0.57912287  0.05879919     0.31600
H1637       H  0.62021574  0.56791228  0.00069905     0.30500
H1638       H  0.65352632  0.56137397  0.97681360     0.32100
H1639       H  0.71623663  0.56696310  0.97704844     0.31100
H1640       H  0.65461763  0.61467719  0.08743409     0.35100
H1641       H  0.66483102  0.63054180  0.04971803     0.27800
H1642       H  0.68386055  0.48744196  0.05069221     0.32100
H1643       H  0.72235415  0.51478451  0.01059133     0.34900
H1644       H  0.61702331  0.56951446  0.02285023     0.27500
H1645       H  0.68322674  0.63294978  0.06246564     0.40400
H1646       H  0.73307262  0.56846163  0.10695889     0.30500
H1647       H  0.67613922  0.57504021  0.10975376     0.38100
H1648       H  0.69907182  0.55286624  0.97817856     0.29900
H1649       H  0.74961761  0.54274733  0.06293761     0.30000
H1650       H  0.70139829  0.49538296  0.03935799     0.30200
Zr1651     Zr  0.52730401  0.68473889  0.05995058     2.17500
O1652       O  0.49545149  0.69164378  0.04617348    -0.52100
O1653       O  0.51666712  0.66529781  0.08609476    -0.75300
O1654       O  0.51662159  0.65252353  0.04738844    -0.82100
O1655       O  0.53586423  0.72154428  0.09938463    -0.83800
O1656       O  0.53528498  0.64361768  0.02165011    -0.79500
O1657       O  0.51142932  0.70493326  0.08588181    -0.91100
O1658       O  0.54417193  0.65088244  0.09772988    -0.77100
O1659       O  0.55014482  0.65841083  0.05541363    -0.86600
O1660       O  0.55049188  0.68686373  0.08496770    -0.86200
O1661       O  0.54183010  0.68991228  0.02894261    -0.73000
O1662       O  0.54364984  0.71381678  0.05502938    -0.85100
Zr1663     Zr  0.60302132  0.69176094  0.04713695     2.26400
Zr1664     Zr  0.56356000  0.66264312  0.02448986     2.06300
Zr1665     Zr  0.56502660  0.71662231  0.08048381     2.10000
Zr1666     Zr  0.57283983  0.66052446  0.08084331     1.78800
O1667       O  0.55603666  0.74997307  0.07520462    -0.93900
O1668       O  0.57666294  0.62654410  0.08846968    -0.41700
O1669       O  0.58829168  0.69011875  0.07797915    -0.78400
O1670       O  0.58690098  0.66203824  0.04966034    -0.97100
O1671       O  0.58045214  0.69135928  0.02167736    -0.90400
O1672       O  0.58216749  0.71976877  0.05144228    -0.93200
C1673       C  0.52576057  0.65431855  0.09768341     1.00500
C1674       C  0.51815363  0.71650009  0.09889557     1.13500
C1675       C  0.52162249  0.64070397  0.03344311     1.04300
O1676       O  0.57567125  0.62949547  0.02081623    -0.95400
O1677       O  0.59181048  0.66093475  0.00395024    -0.91100
O1678       O  0.61728073  0.67309654  0.02023222    -0.84300
C1679       C  0.60991748  0.66419169  0.00571548     1.10900
O1680       O  0.53182381  0.73177621  0.00905473    -0.97300
Zr1681     Zr  0.56016111  0.71910112  0.02581600     1.88900
O1682       O  0.61119831  0.70729348  0.01827492    -0.74000
O1683       O  0.54935809  0.66323632  0.99270675    -0.53300
O1684       O  0.56262184  0.71329264  0.99119692    -0.97900
O1685       O  0.55408235  0.75339896  0.03126347    -0.55100
O1686       O  0.59264930  0.73388332  0.01806336    -0.74500
C1687       C  0.60959484  0.72521310  0.01635415     0.97800
O1688       O  0.63186822  0.67484786  0.05926037    -0.63300
O1689       O  0.57248483  0.72401910  0.11404083    -0.58100
O1690       O  0.61870869  0.71702999  0.06641163    -0.94800
O1691       O  0.59665581  0.72819315  0.08858616    -0.93200
O1692       O  0.58297796  0.67382467  0.11158567    -0.93600
O1693       O  0.60459274  0.64451052  0.08483725    -0.92400
C1694       C  0.61369055  0.72760323  0.08118077     1.16700
H1695       H  0.54484223  0.68683465  0.09758096     0.32600
H1696       H  0.59607997  0.65136354  0.04747896     0.43500
H1697       H  0.58896808  0.73164274  0.05183870     0.37000
H1698       H  0.53183384  0.68950377  0.01921882     0.33500
H1699       H  0.56362226  0.62172584  0.09124091     0.25300
H1700       H  0.55805108  0.67124090  0.98527453     0.31200
H1701       H  0.57674284  0.71245254  0.98832247     0.37100
H1702       H  0.57398638  0.66848857  0.12093392     0.31600
H1703       H  0.56560806  0.73645228  0.11710934     0.30500
H1704       H  0.56849393  0.75621160  0.07295490     0.32100
H1705       H  0.55566953  0.75906743  0.01859422     0.31100
H1706       H  0.61220832  0.65367914  0.09252791     0.35100
H1707       H  0.63059792  0.67608027  0.07330128     0.27800
H1708       H  0.48768991  0.68034024  0.04898507     0.32100
H1709       H  0.52076180  0.72513033  0.01462940     0.34900
H1710       H  0.56555888  0.71449472  0.12147606     0.27500
H1711       H  0.62988672  0.66109497  0.05624437     0.40400
H1712       H  0.56813294  0.62395717  0.01011528     0.30500
H1713       H  0.58079198  0.61970221  0.07648524     0.38100
H1714       H  0.56552601  0.75772436  0.03850793     0.29900
H1715       H  0.55166694  0.65006165  0.98730022     0.30000
H1716       H  0.49763141  0.69068445  0.03220912     0.30200
Zr1717     Zr  0.66683531  0.67972610  0.21340163     2.17500
O1718       O  0.68140703  0.68711752  0.24421406    -0.52100
O1719       O  0.63869074  0.66316253  0.22352918    -0.75300
O1720       O  0.63980615  0.69935077  0.22909230    -0.82100
O1721       O  0.69542192  0.63286933  0.19871816    -0.83800
O1722       O  0.63093224  0.72096533  0.20708928    -0.79500
O1723       O  0.67943334  0.64768232  0.22394660    -0.91100
O1724       O  0.62046264  0.65850117  0.19697542    -0.77100
O1725       O  0.64279723  0.69195209  0.19236118    -0.86600
O1726       O  0.66357979  0.65627551  0.18817237    -0.86200
O1727       O  0.67829196  0.71011249  0.20220271    -0.73000
O1728       O  0.69815233  0.67716906  0.19748258    -0.85100
Zr1729     Zr  0.67948105  0.69322628  0.14177905     2.26400
Zr1730     Zr  0.65350738  0.72168032  0.18088939     2.06300
Zr1731     Zr  0.69457767  0.65338094  0.17243094     2.10000
Zr1732     Zr  0.63810564  0.66804774  0.16863129     1.78800
O1733       O  0.72803375  0.64582100  0.18147517    -0.93900
O1734       O  0.60656006  0.68411480  0.16401320    -0.41700
O1735       O  0.66866279  0.66325575  0.15224699    -0.78400
O1736       O  0.64835860  0.69782427  0.15642392    -0.97100
O1737       O  0.68380480  0.71827633  0.16475210    -0.90400
O1738       O  0.70537509  0.68268970  0.16131543    -0.93200
C1739       C  0.62342265  0.65746022  0.21504009     1.00500
C1740       C  0.68897078  0.63328922  0.21575123     1.13500
C1741       C  0.62821109  0.71283451  0.22294927     1.04300
O1742       O  0.62282688  0.73836913  0.17387475    -0.95400
O1743       O  0.65201530  0.74133798  0.15236751    -0.91100
O1744       O  0.66685157  0.72239351  0.12955219    -0.84300
C1745       C  0.65792933  0.73796021  0.13512554     1.10900
O1746       O  0.72212558  0.71378499  0.21645588    -0.97300
Zr1747     Zr  0.70889625  0.70705418  0.18487636     1.88900
O1748       O  0.70669146  0.70958765  0.12987314    -0.74000
O1749       O  0.66386677  0.75101363  0.19701727    -0.53300
O1750       O  0.71059077  0.74172026  0.18933531    -0.97900
O1751       O  0.74230441  0.69554672  0.18979187    -0.55100
O1752       O  0.72648624  0.71600198  0.15508964    -0.74500
C1753       C  0.72244768  0.71572995  0.13699657     0.97800
O1754       O  0.66288667  0.68307270  0.11287922    -0.63300
O1755       O  0.68961692  0.62105599  0.15962470    -0.58100
O1756       O  0.70075766  0.67254330  0.12310833    -0.94800
O1757       O  0.71008812  0.64784139  0.14125080    -0.93200
O1758       O  0.63041736  0.63436529  0.16418266    -0.93600
O1759       O  0.62581471  0.66134650  0.13666136    -0.92400
C1760       C  0.71064750  0.65710624  0.12570043     1.16700
H1761       H  0.65971782  0.64408546  0.19285489     0.32600
H1762       H  0.63894164  0.70253162  0.14737505     0.43500
H1763       H  0.71761150  0.68080219  0.15461538     0.37000
H1764       H  0.67955755  0.71895488  0.21298923     0.33500
H1765       H  0.59698806  0.67414734  0.16629640     0.25300
H1766       H  0.65406714  0.76093523  0.19329668     0.31200
H1767       H  0.71669588  0.74615708  0.17752282     0.37100
H1768       H  0.61605755  0.63440640  0.16312275     0.31600
H1769       H  0.70103407  0.61334909  0.16399218     0.30500
H1770       H  0.73597050  0.65417691  0.17363313     0.32100
H1771       H  0.75006368  0.70725353  0.18983691     0.31100
H1772       H  0.63595812  0.65291889  0.13038697     0.35100
H1773       H  0.66427896  0.66888928  0.11236462     0.27800
H1774       H  0.67399472  0.67962166  0.25335667     0.32100
H1775       H  0.71439708  0.70603247  0.22512736     0.34900
H1776       H  0.67852951  0.61638477  0.16699443     0.27500
H1777       H  0.64891898  0.68573487  0.11566626     0.40400
H1778       H  0.61406291  0.72808219  0.16975111     0.30500
H1779       H  0.60503546  0.69321666  0.17506236     0.38100
H1780       H  0.74602720  0.68863035  0.17773433     0.29900
H1781       H  0.66124766  0.74916435  0.21071418     0.30000
H1782       H  0.67733054  0.70064374  0.24712684     0.30200
Zr1783     Zr  0.78870164  0.46710238  0.42058732     2.17500
O1784       O  0.77393773  0.49856675  0.42853972    -0.52100
O1785       O  0.81179883  0.47773699  0.39731523    -0.75300
O1786       O  0.81905935  0.48225772  0.43446370    -0.82100
O1787       O  0.76078072  0.44429593  0.37832085    -0.83800
O1788       O  0.81814988  0.47330782  0.46456716    -0.79500
O1789       O  0.77325023  0.47263514  0.38828692    -0.91100
O1790       O  0.83289206  0.45214507  0.39254624    -0.77100
O1791       O  0.81694847  0.44969883  0.43114820    -0.86600
O1792       O  0.79348612  0.44011266  0.39947498    -0.86200
O1793       O  0.78133155  0.45631737  0.45261990    -0.73000
O1794       O  0.76086328  0.44819679  0.42529975    -0.85100
Zr1795     Zr  0.78968692  0.39440037  0.44259893     2.26400
Zr1796     Zr  0.81057043  0.43978053  0.46279118     2.06300
Zr1797     Zr  0.76467141  0.42266002  0.40354464     2.10000
Zr1798     Zr  0.82234643  0.42399551  0.40899211     1.78800
O1799       O  0.72996824  0.42994412  0.40512420    -0.93900
O1800       O  0.85646319  0.42588196  0.41766585    -0.41700
O1801       O  0.79420935  0.40527661  0.41102829    -0.78400
O1802       O  0.81774749  0.41342434  0.44084591    -0.97100
O1803       O  0.78328622  0.41998923  0.46520562    -0.90400
O1804       O  0.75961519  0.40966097  0.43343595    -0.93200
C1805       C  0.82707440  0.46956422  0.38981220     1.00500
C1806       C  0.76505181  0.46158364  0.37551524     1.13500
C1807       C  0.82660239  0.48211733  0.45143266     1.04300
O1808       O  0.84572291  0.43925834  0.46709097    -0.95400
O1809       O  0.81765921  0.41428735  0.48504946    -0.91100
O1810       O  0.80784810  0.38656326  0.47083120    -0.84300
C1811       C  0.81560959  0.39605090  0.48461566     1.10900
O1812       O  0.73696625  0.46391736  0.46916185    -0.97300
Zr1813     Zr  0.75376149  0.43540385  0.45546630     1.88900
O1814       O  0.76934426  0.38798773  0.46914127    -0.74000
O1815       O  0.80449075  0.45349991  0.49475340    -0.53300
O1816       O  0.74995308  0.43904431  0.49018682    -0.97900
O1817       O  0.72059618  0.43596757  0.44356862    -0.55100
O1818       O  0.74126961  0.40278248  0.46358808    -0.74500
C1819       C  0.75115829  0.38725536  0.46745958     0.97800
O1820       O  0.80889094  0.36532261  0.43418716    -0.63300
O1821       O  0.75748859  0.40560233  0.37340954    -0.58100
O1822       O  0.77293714  0.37052709  0.42355659    -0.94800
O1823       O  0.75992928  0.38879447  0.40008480    -0.93200
O1824       O  0.82183222  0.41280401  0.37578295    -0.93600
O1825       O  0.84043292  0.39387522  0.40289186    -0.92400
C1826       C  0.76405296  0.37272111  0.40769463     1.16700
H1827       H  0.79568812  0.44352505  0.38650175     0.32600
H1828       H  0.82901564  0.40614563  0.44482911     0.43500
H1829       H  0.74895108  0.40112661  0.43199290     0.37000
H1830       H  0.77894878  0.46748730  0.46086516     0.33500
H1831       H  0.86333332  0.42803215  0.40551643     0.25300
H1832       H  0.79236502  0.46142038  0.49360700     0.31200
H1833       H  0.74706682  0.42608714  0.49459772     0.37100
H1834       H  0.83219289  0.41982634  0.36946792     0.31600
H1835       H  0.74714340  0.41323659  0.36700842     0.30500
H1836       H  0.72395381  0.41864971  0.39899734     0.32100
H1837       H  0.71748508  0.44950815  0.44060771     0.31100
H1838       H  0.83994538  0.38729045  0.41517567     0.35100
H1839       H  0.81144503  0.36602300  0.42036648     0.27800
H1840       H  0.78491788  0.50739660  0.42864802     0.32100
H1841       H  0.73778338  0.47352609  0.45910560     0.34900
H1842       H  0.76920910  0.40672846  0.36540468     0.27500
H1843       H  0.82169059  0.36732570  0.44016181     0.40400
H1844       H  0.85061060  0.42699475  0.46109020     0.30500
H1845       H  0.85725911  0.43814591  0.42504253     0.38100
H1846       H  0.71240465  0.43339025  0.45477911     0.29900
H1847       H  0.80074051  0.44267906  0.50263125     0.30000
H1848       H  0.77010106  0.49783620  0.44211080     0.30200
Zr1849     Zr  0.79505819  0.29743245  0.26638135     2.17500
O1850       O  0.78417845  0.28606791  0.23514685    -0.52100
O1851       O  0.82316796  0.31524743  0.25655276    -0.75300
O1852       O  0.78691703  0.32837765  0.25087720    -0.82100
O1853       O  0.82933784  0.25728132  0.28251515    -0.83800
O1854       O  0.76709630  0.34565440  0.27145647    -0.79500
O1855       O  0.82098978  0.27407803  0.25634067    -0.91100
O1856       O  0.83265277  0.33066286  0.28377171    -0.77100
O1857       O  0.79040229  0.32495805  0.28670375    -0.86600
O1858       O  0.81703486  0.29334715  0.29234534    -0.86200
O1859       O  0.76114648  0.29724057  0.27620286    -0.73000
O1860       O  0.78559034  0.26892607  0.28291273    -0.85100
Zr1861     Zr  0.77111759  0.29559819  0.33829305     2.26400
Zr1862     Zr  0.75698363  0.32545942  0.29638770     2.06300
Zr1863     Zr  0.80774891  0.26561568  0.30908323     2.10000
Zr1864     Zr  0.81353692  0.32149671  0.31136177     1.78800
O1865       O  0.80249522  0.23160379  0.30331644    -0.93900
O1866       O  0.81459953  0.35619693  0.31557490    -0.41700
O1867       O  0.80468352  0.29413569  0.32880812    -0.78400
O1868       O  0.78041410  0.32321377  0.32187000    -0.97100
O1869       O  0.74788625  0.29820339  0.31352714    -0.90400
O1870       O  0.77493874  0.26660784  0.31990417    -0.93200
C1871       C  0.83425033  0.32668774  0.26577277     1.00500
C1872       C  0.83197803  0.26189194  0.26512441     1.13500
C1873       C  0.77736982  0.34393313  0.25629335     1.04300
O1874       O  0.73988635  0.35641451  0.29305666    -0.95400
O1875       O  0.74611127  0.34209189  0.32540856    -0.91100
O1876       O  0.74236055  0.31617135  0.34235432    -0.84300
C1877       C  0.74317371  0.33428508  0.34130705     1.10900
O1878       O  0.74296519  0.25462394  0.26446622    -0.97300
Zr1879     Zr  0.75235756  0.26964321  0.29470570     1.88900
O1880       O  0.74693402  0.27504198  0.34945584    -0.74000
O1881       O  0.72569912  0.31684261  0.28299941    -0.53300
O1882       O  0.71854674  0.27699837  0.28678148    -0.97900
O1883       O  0.75442587  0.23463306  0.29471407    -0.55100
O1884       O  0.73307254  0.26114865  0.32333282    -0.74500
C1885       C  0.73428157  0.26454930  0.34153941     0.97800
O1886       O  0.77441622  0.31212870  0.36917266    -0.63300
O1887       O  0.84055801  0.25998033  0.32120996    -0.58100
O1888       O  0.78808580  0.27496488  0.35944154    -0.94800
O1889       O  0.80876270  0.25524408  0.34229670    -0.93200
O1890       O  0.84637465  0.31012614  0.31896630    -0.93600
O1891       O  0.82242768  0.33571113  0.34211842    -0.92400
C1892       C  0.80071221  0.26115527  0.35813033     1.16700
H1893       H  0.83043500  0.29233224  0.28816743     0.32600
H1894       H  0.77986505  0.33381756  0.33072590     0.43500
H1895       H  0.77250598  0.25557338  0.32739253     0.37000
H1896       H  0.75302616  0.29818903  0.26503738     0.33500
H1897       H  0.82591812  0.36001827  0.30798420     0.25300
H1898       H  0.71605225  0.32044937  0.29310626     0.31200
H1899       H  0.71143063  0.26562516  0.29065948     0.37100
H1900       H  0.85411437  0.32184403  0.31935901     0.31600
H1901       H  0.84511645  0.24755674  0.31528564     0.30500
H1902       H  0.81176893  0.22502082  0.31190386     0.32100
H1903       H  0.75961941  0.23128178  0.30737851     0.31100
H1904       H  0.82363964  0.32475520  0.35073193     0.35100
H1905       H  0.76711131  0.30448034  0.37825492     0.27800
H1906       H  0.79613791  0.28510609  0.22722966     0.32100
H1907       H  0.74558262  0.26426008  0.25478542     0.34900
H1908       H  0.84850076  0.26967221  0.31509195     0.27500
H1909       H  0.78824311  0.31027826  0.37277847     0.40400
H1910       H  0.72598512  0.35421192  0.29559360     0.30500
H1911       H  0.80305745  0.36115911  0.30869063     0.38100
H1912       H  0.76507886  0.23092324  0.28568222     0.29900
H1913       H  0.72313867  0.32607380  0.27277459     0.30000
H1914       H  0.77659188  0.29704671  0.22997673     0.30200
Zr1915     Zr  0.93146524  0.31681400  0.43701424     2.17500
O1916       O  0.96455892  0.30518608  0.44323098    -0.52100
O1917       O  0.93697262  0.34223412  0.41519634    -0.75300
O1918       O  0.94393004  0.30256619  0.40600772    -0.82100
O1919       O  0.92941533  0.34442908  0.48554763    -0.83800
O1920       O  0.91708715  0.29152423  0.39104602    -0.79500
O1921       O  0.94636224  0.34249891  0.45764089    -0.91100
O1922       O  0.91207102  0.36425789  0.41959789    -0.77100
O1923       O  0.90527434  0.32554319  0.41646531    -0.86600
O1924       O  0.91007819  0.33931132  0.45347871    -0.86200
O1925       O  0.91354192  0.28770483  0.43126147    -0.73000
O1926       O  0.92107508  0.29949765  0.46474008    -0.85100
Zr1927     Zr  0.85704852  0.30721904  0.45497314     2.26400
Zr1928     Zr  0.88793015  0.29745195  0.41019436     2.06300
Zr1929     Zr  0.90222123  0.32332132  0.48208619     2.10000
Zr1930     Zr  0.88484640  0.34850956  0.43308439     1.78800
O1931       O  0.91772257  0.29777819  0.50020626    -0.93900
O1932       O  0.86944516  0.35348030  0.40235676    -0.41700
O1933       O  0.87592202  0.33447439  0.46229839    -0.78400
O1934       O  0.86673905  0.32100313  0.42567897    -0.97100
O1935       O  0.87581034  0.28306581  0.43794191    -0.90400
O1936       O  0.88212619  0.29679941  0.47627453    -0.93200
C1937       C  0.92805004  0.35820594  0.41188328     1.00500
C1938       C  0.94188468  0.35087378  0.47397565     1.13500
C1939       C  0.93540489  0.29430603  0.39163617     1.04300
O1940       O  0.87229190  0.31661322  0.38573150    -0.95400
O1941       O  0.86038057  0.27717351  0.40911376    -0.91100
O1942       O  0.83932883  0.28582756  0.43294852    -0.84300
C1943       C  0.84406628  0.27589220  0.41769948     1.10900
O1944       O  0.92961061  0.25230200  0.45977525    -0.97300
Zr1945     Zr  0.89998616  0.27243753  0.45879395     1.88900
O1946       O  0.84628895  0.28244421  0.47404713    -0.74000
O1947       O  0.89032139  0.27580826  0.38224866    -0.53300
O1948       O  0.89910982  0.24471035  0.43688747    -0.97900
O1949       O  0.90608453  0.25898013  0.48998197    -0.55100
O1950       O  0.86825012  0.25791521  0.46816273    -0.74500
C1951       C  0.85135606  0.26475085  0.47404760     0.97800
O1952       O  0.82450456  0.32152025  0.45147159    -0.63300
O1953       O  0.90536636  0.33487245  0.51514741    -0.58100
O1954       O  0.84664760  0.32749921  0.48255286    -0.94800
O1955       O  0.87367149  0.33596027  0.49880443    -0.93200
O1956       O  0.88834516  0.38297158  0.43806556    -0.93600
O1957       O  0.85710036  0.36669473  0.44680527    -0.92400
C1958       C  0.85526980  0.33651458  0.49628071     1.16700
H1959       H  0.91422378  0.35238711  0.45522373     0.32600
H1960       H  0.85443051  0.32418473  0.41753492     0.43500
H1961       H  0.87720409  0.29240699  0.48825523     0.37000
H1962       H  0.92212545  0.27799484  0.42467381     0.33500
H1963       H  0.85572139  0.35697737  0.40543261     0.25300
H1964       H  0.89227666  0.26286173  0.38744326     0.31200
H1965       H  0.88510679  0.24245938  0.43506670     0.37100
H1966       H  0.88169344  0.38891398  0.42708668     0.31600
H1967       H  0.89873205  0.32549812  0.52305034     0.30500
H1968       H  0.90768813  0.29398401  0.50938131     0.32100
H1969       H  0.90564159  0.24490651  0.48778572     0.31100
H1970       H  0.86041591  0.36930462  0.46034468     0.35100
H1971       H  0.82170916  0.32061053  0.43763955     0.27800
H1972       H  0.96475068  0.30286669  0.45709352     0.32100
H1973       H  0.93701927  0.25547059  0.44821181     0.34900
H1974       H  0.91928039  0.33300298  0.51836754     0.27500
H1975       H  0.81577096  0.31232415  0.45731082     0.40400
H1976       H  0.86183591  0.30855950  0.38057941     0.30500
H1977       H  0.87497016  0.36544033  0.39776127     0.38100
H1978       H  0.89419762  0.26227108  0.49755357     0.29900
H1979       H  0.87723008  0.27578729  0.37644731     0.30000
H1980       H  0.97267832  0.31650363  0.44172755     0.30200
Zr1981     Zr  0.91186576  0.42481831  0.25698544     2.17500
O1982       O  0.92271193  0.43141877  0.22477841    -0.52100
O1983       O  0.89346171  0.39572998  0.24811246    -0.75300
O1984       O  0.93653380  0.40065025  0.24595949    -0.82100
O1985       O  0.87769585  0.46841878  0.25536392    -0.83800
O1986       O  0.94969674  0.38899210  0.27304116    -0.79500
O1987       O  0.88996786  0.44371786  0.23671514    -0.91100
O1988       O  0.87651127  0.38761018  0.27437742    -0.77100
O1989       O  0.91063505  0.40302398  0.28230761    -0.86600
O1990       O  0.88280980  0.43271898  0.27466857    -0.86200
O1991       O  0.94108154  0.43070689  0.27518060    -0.73000
O1992       O  0.91547445  0.45719392  0.26999318    -0.85100
Zr1993     Zr  0.91312623  0.44459628  0.33102856     2.26400
Zr1994     Zr  0.93961994  0.40831230  0.30018072     2.06300
Zr1995     Zr  0.88637612  0.46436473  0.28808328     2.10000
Zr1996     Zr  0.88120803  0.41056991  0.29944333     1.78800
O1997       O  0.88674293  0.49819131  0.28055004    -0.93900
O1998       O  0.88058602  0.37951853  0.31445577    -0.41700
O1999       O  0.88390728  0.44196791  0.31294511    -0.78400
O2000       O  0.90983007  0.41280411  0.31805127    -0.97100
O2001       O  0.94291518  0.43932008  0.31425836    -0.90400
O2002       O  0.91437924  0.46856030  0.30762295    -0.93200
C2003       C  0.88229239  0.38458437  0.25725610     1.00500
C2004       C  0.87934282  0.45914325  0.23937686     1.13500
C2005       C  0.94764442  0.38881125  0.25496775     1.04300
O2006       O  0.95108714  0.37499372  0.30223314    -0.95400
O2007       O  0.94501733  0.39875545  0.33232610    -0.91100
O2008       O  0.92726340  0.41995708  0.35102876    -0.84300
C2009       C  0.93800112  0.40471159  0.34838521     1.10900
O2010       O  0.96014534  0.47393245  0.26222213    -0.97300
Zr2011     Zr  0.94344077  0.46229170  0.29001719     1.88900
O2012       O  0.93677222  0.46571926  0.34390976    -0.74000
O2013       O  0.97293683  0.41827677  0.30422219    -0.53300
O2014       O  0.97818677  0.45464015  0.28727195    -0.97900
O2015       O  0.93827042  0.49657349  0.28520187    -0.55100
O2016       O  0.95622026  0.47585531  0.32023404    -0.74500
C2017       C  0.95111311  0.47499372  0.33788447     0.97800
O2018       O  0.90019328  0.44517573  0.36355035    -0.63300
O2019       O  0.85109921  0.46277112  0.28625775    -0.58100
O2020       O  0.88801292  0.46743616  0.34047698    -0.94800
O2021       O  0.87398254  0.48273666  0.31578242    -0.93200
O2022       O  0.84762994  0.41669697  0.28969344    -0.93600
O2023       O  0.85922820  0.40975059  0.32670953    -0.92400
C2024       C  0.87633856  0.48012441  0.33364947     1.16700
H2025       H  0.87153401  0.43194773  0.26670591     0.32600
H2026       H  0.90830166  0.40339451  0.32751130     0.43500
H2027       H  0.91415970  0.48123131  0.31366651     0.37000
H2028       H  0.95248282  0.42804281  0.26736966     0.33500
H2029       H  0.86798373  0.37414526  0.31066779     0.25300
H2030       H  0.97814459  0.41063190  0.31484366     0.31200
H2031       H  0.98370675  0.45817434  0.29986062     0.37100
H2032       H  0.84251211  0.40386412  0.28667521     0.31600
H2033       H  0.84672832  0.46060478  0.29946008     0.30500
H2034       H  0.89344492  0.50444674  0.29140331     0.32100
H2035       H  0.93370160  0.50221549  0.29761910     0.31100
H2036       H  0.86489637  0.41838637  0.33650453     0.35100
H2037       H  0.89474401  0.43239244  0.36536020     0.27800
H2038       H  0.92082938  0.41938216  0.21724686     0.32100
H2039       H  0.95166601  0.47051180  0.25135258     0.34900
H2040       H  0.84650205  0.47602351  0.28358136     0.27500
H2041       H  0.91152972  0.44577185  0.37220298     0.40400
H2042       H  0.96463441  0.37559989  0.30688427     0.30500
H2043       H  0.89042450  0.37141793  0.30735891     0.38100
H2044       H  0.92681830  0.49750423  0.27673921     0.29900
H2045       H  0.97993706  0.41302626  0.29279959     0.30000
H2046       H  0.93698746  0.43250251  0.22572064     0.30200
Zr2047     Zr  0.70995243  0.50788262  0.21021229     2.17500
O2048       O  0.68455325  0.51767588  0.18800184    -0.52100
O2049       O  0.70748102  0.54316616  0.21575365    -0.75300
O2050       O  0.67726823  0.50259679  0.22225013    -0.82100
O2051       O  0.74592414  0.49355752  0.16969940    -0.83800
O2052       O  0.67798893  0.48984705  0.25174713    -0.79500
O2053       O  0.71519589  0.50517431  0.17527023    -0.91100
O2054       O  0.72627390  0.55132927  0.24086946    -0.77100
O2055       O  0.71605141  0.51432572  0.24318984    -0.86600
O2056       O  0.74228709  0.51898941  0.21158782    -0.86200
O2057       O  0.70667785  0.47768505  0.22593432    -0.73000
O2058       O  0.73026547  0.48170556  0.19787644    -0.85100
Zr2059     Zr  0.76522306  0.46907304  0.24887861     2.26400
Zr2060     Zr  0.71251531  0.48462338  0.25920282     2.06300
Zr2061     Zr  0.76258657  0.49254820  0.19990142     2.10000
Zr2062     Zr  0.74876923  0.52458133  0.24457551     1.78800
O2063       O  0.77973272  0.47690650  0.17295470    -0.93900
O2064       O  0.74339691  0.53932843  0.27620279    -0.41700
O2065       O  0.76962508  0.49866000  0.23282312    -0.78400
O2066       O  0.74514727  0.49571506  0.26112626    -0.97100
O2067       O  0.73287627  0.45816206  0.24705228    -0.90400
O2068       O  0.75974932  0.46292436  0.21584701    -0.93200
C2069       C  0.71363785  0.55549306  0.22824765     1.00500
C2070       C  0.72917742  0.49939092  0.16393294     1.13500
C2071       C  0.66892436  0.49590157  0.23694634     1.04300
O2072       O  0.69880558  0.50771488  0.28273262    -0.95400
O2073       O  0.72727216  0.47657160  0.29016261    -0.91100
O2074       O  0.75894039  0.46873969  0.28345176    -0.84300
C2075       C  0.74471348  0.47172604  0.29534027     1.10900
O2076       O  0.70073969  0.44512224  0.19236549    -0.97300
Zr2077     Zr  0.72758174  0.45216501  0.21377288     1.88900
O2078       O  0.76636248  0.43370199  0.24604048    -0.74000
O2079       O  0.69391177  0.45773031  0.26963667    -0.53300
O2080       O  0.70503098  0.42987075  0.22706934    -0.97900
O2081       O  0.73902532  0.43947828  0.18276084    -0.55100
O2082       O  0.74823398  0.42461510  0.22091040    -0.74500
C2083       C  0.76047418  0.42081391  0.23402518     0.97800
O2084       O  0.79498634  0.46622852  0.26759017    -0.63300
O2085       O  0.77728076  0.52245072  0.19136971    -0.58100
O2086       O  0.79744169  0.46940358  0.23414884    -0.94800
O2087       O  0.79600037  0.48246992  0.20476996    -0.93200
O2088       O  0.76936398  0.54630274  0.22778551    -0.93600
O2089       O  0.77725951  0.53159068  0.26375023    -0.92400
C2090       C  0.80517225  0.47463505  0.21848910     1.16700
H2091       H  0.74339586  0.53043826  0.20425689     0.32600
H2092       H  0.74846476  0.49965479  0.27389762     0.43500
H2093       H  0.76905089  0.45342756  0.21065524     0.37000
H2094       H  0.69413876  0.47227672  0.22401647     0.33500
H2095       H  0.74280291  0.55335086  0.27428419     0.25300
H2096       H  0.70365224  0.44868141  0.27505121     0.31200
H2097       H  0.70869460  0.42897426  0.24065811     0.37100
H2098       H  0.78213879  0.53939398  0.22654901     0.31600
H2099       H  0.78972418  0.51841483  0.18510788     0.30500
H2100       H  0.77493124  0.46367443  0.17242172     0.32100
H2101       H  0.75294886  0.43594251  0.18452661     0.31100
H2102       H  0.78660883  0.52076255  0.26089133     0.35100
H2103       H  0.79428275  0.47691522  0.27721335     0.27800
H2104       H  0.67567276  0.52670773  0.19523383     0.32100
H2105       H  0.70252638  0.43137038  0.18862876     0.34900
H2106       H  0.76912557  0.52755281  0.18095078     0.27500
H2107       H  0.79388408  0.45441975  0.27493506     0.40400
H2108       H  0.69489263  0.51912467  0.27539135     0.30500
H2109       H  0.72993133  0.53615624  0.27960070     0.38100
H2110       H  0.73907958  0.45073875  0.17448635     0.29900
H2111       H  0.68635830  0.46291437  0.28079540     0.30000
H2112       H  0.67693418  0.50605854  0.18570693     0.30200
Zr2113     Zr  0.73271017  0.72179280  0.01377444     2.17500
O2114       O  0.70699121  0.70252195  0.02646423    -0.52100
O2115       O  0.73633632  0.72279924  0.04930092    -0.75300
O2116       O  0.74055291  0.68689773  0.00932273    -0.82100
O2117       O  0.69608583  0.76488834  0.00037180    -0.83800
O2118       O  0.77229965  0.68248958  0.00046207    -0.79500
O2119       O  0.69893544  0.73365895  0.00872815    -0.91100
O2120       O  0.75940730  0.74373371  0.05817805    -0.77100
O2121       O  0.76633282  0.72361640  0.02098843    -0.86600
O2122       O  0.73774535  0.75459097  0.02260933    -0.86200
O2123       O  0.74938064  0.71230424  0.98438062    -0.73000
O2124       O  0.72405974  0.74065566  0.98656473    -0.85100
Zr2125     Zr  0.78097127  0.76465087  0.97336125     2.26400
Zr2126     Zr  0.78309919  0.71391410  0.99209080     2.06300
Zr2127     Zr  0.72981589  0.77339161  0.99527942     2.10000
Zr2128     Zr  0.77156975  0.75650296  0.02915538     1.78800
O2129       O  0.70727346  0.78958795  0.97391826    -0.93900
O2130       O  0.79927213  0.74353193  0.04678680    -0.41700
O2131       O  0.76379933  0.77515256  0.00198501    -0.78400
O2132       O  0.78938705  0.74660744  0.00110105    -0.97100
O2133       O  0.77507172  0.73216859  0.96449365    -0.90400
O2134       O  0.74702048  0.76392571  0.96642302    -0.93200
C2135       C  0.74659762  0.73160825  0.06208064     1.00500
C2136       C  0.68871059  0.74907218  0.00515256     1.13500
C2137       C  0.75567916  0.67612858  0.00488459     1.04300
O2138       O  0.80539085  0.70158088  0.01604551    -0.95400
O2139       O  0.81581501  0.72037199  0.98237665    -0.91100
O2140       O  0.81477697  0.75117030  0.97241888    -0.84300
C2141       C  0.82391562  0.73531046  0.97638180     1.10900
O2142       O  0.71435010  0.70973501  0.95332194    -0.97300
Zr2143     Zr  0.74114961  0.73141790  0.95771538     1.88900
O2144       O  0.77856084  0.76335124  0.93825076    -0.74000
O2145       O  0.79258508  0.69073511  0.96677040    -0.53300
O2146       O  0.75027526  0.70270001  0.93864577    -0.97900
O2147       O  0.71399534  0.74707367  0.94127300    -0.55100
O2148       O  0.75574047  0.74241993  0.92866189    -0.74500
C2149       C  0.76874660  0.75456625  0.92522721     0.97800
O2150       O  0.80481048  0.78880418  0.96755615    -0.63300
O2151       O  0.72032888  0.79383260  0.02285664    -0.58100
O2152       O  0.77353379  0.79937762  0.97610231    -0.94800
O2153       O  0.74271907  0.80441832  0.98753148    -0.93200
O2154       O  0.75823372  0.78517879  0.04583628    -0.93600
O2155       O  0.79736152  0.77890654  0.03541405    -0.92400
C2156       C  0.75887347  0.81043101  0.98108576     1.16700
H2157       H  0.72985946  0.75857818  0.03353153     0.32600
H2158       H  0.80277090  0.74811926  0.00467813     0.43500
H2159       H  0.74360606  0.77247795  0.95627047     0.37000
H2160       H  0.74634199  0.69968086  0.97960535     0.33500
H2161       H  0.79774306  0.74901507  0.05992058     0.25300
H2162       H  0.79846580  0.67959787  0.97334656     0.31200
H2163       H  0.76352114  0.70496228  0.93384647     0.37100
H2164       H  0.76640529  0.78676108  0.05732558     0.31600
H2165       H  0.72283928  0.80709711  0.01911558     0.30500
H2166       H  0.69916300  0.79828278  0.98234121     0.32100
H2167       H  0.71951389  0.75207743  0.92942602     0.31100
H2168       H  0.79902484  0.78547007  0.02322607     0.35100
H2169       H  0.81292592  0.78929559  0.97917796     0.27800
H2170       H  0.71335687  0.69439283  0.03612642     0.32100
H2171       H  0.71185356  0.70915019  0.93942488     0.34900
H2172       H  0.70597682  0.79338926  0.02351921     0.27500
H2173       H  0.81341188  0.78291628  0.95755465     0.40400
H2174       H  0.81301019  0.69111100  0.00934073     0.30500
H2175       H  0.79672232  0.72972737  0.04798480     0.38100
H2176       H  0.71054624  0.75866804  0.94920625     0.29900
H2177       H  0.78015267  0.68608196  0.96163676     0.30000
H2178       H  0.70347639  0.69350200  0.01597719     0.30200
Zr2179     Zr  0.15975548  0.18481734  0.21478919     2.17500
O2180       O  0.17649163  0.18992467  0.24496735    -0.52100
O2181       O  0.13378026  0.16601698  0.22690610    -0.75300
O2182       O  0.13745136  0.20522810  0.23546806    -0.82100
O2183       O  0.18533355  0.13844217  0.19441236    -0.83800
O2184       O  0.12581113  0.22845486  0.21627294    -0.79500
O2185       O  0.17288833  0.15231469  0.22191137    -0.91100
O2186       O  0.11294719  0.16250867  0.20217510    -0.77100
O2187       O  0.13290412  0.19840704  0.19799078    -0.86600
O2188       O  0.15320730  0.16295470  0.18893929    -0.86200
O2189       O  0.17058959  0.21534299  0.20377267    -0.73000
O2190       O  0.18884877  0.18265289  0.19495561    -0.85100
Zr2191     Zr  0.16301255  0.20423411  0.14231314     2.26400
Zr2192     Zr  0.14338348  0.22852354  0.18664993     2.06300
Zr2193     Zr  0.18138723  0.16083787  0.16892521     2.10000
Zr2194     Zr  0.12581646  0.17574874  0.17327454     1.78800
O2195       O  0.21507317  0.14904961  0.16993824    -0.93900
O2196       O  0.09369294  0.19150195  0.17410858    -0.41700
O2197       O  0.15362734  0.17327423  0.15250365    -0.78400
O2198       O  0.13438630  0.20609843  0.16174003    -0.97100
O2199       O  0.17121535  0.22688136  0.16656160    -0.90400
O2200       O  0.19073389  0.19087368  0.15790713    -0.93200
C2201       C  0.11814609  0.15980387  0.21948473     1.00500
C2202       C  0.18061800  0.13798382  0.21211287     1.13500
C2203       C  0.12606273  0.21988087  0.23211909     1.04300
O2204       O  0.12003442  0.25522463  0.19224264    -0.95400
O2205       O  0.12842352  0.24272959  0.15876776    -0.91100
O2206       O  0.14866368  0.23504224  0.13433850    -0.84300
C2207       C  0.13246377  0.24192254  0.14089687     1.10900
O2208       O  0.21684010  0.22011146  0.21122137    -0.97300
Zr2209     Zr  0.19848091  0.21293066  0.18242471     1.88900
O2210       O  0.18999311  0.22021492  0.12912277    -0.74000
O2211       O  0.16321203  0.25535008  0.19618309    -0.53300
O2212       O  0.20409240  0.24709063  0.18653659    -0.97900
O2213       O  0.23055101  0.19692743  0.18192038    -0.55100
O2214       O  0.21353250  0.22196368  0.15176958    -0.74500
C2215       C  0.20723220  0.22387570  0.13454924     0.97800
O2216       O  0.14317736  0.19960639  0.11394333    -0.63300
O2217       O  0.17026052  0.13053708  0.15548109    -0.58100
O2218       O  0.18038011  0.18451815  0.11942744    -0.94800
O2219       O  0.19126761  0.15842414  0.13524111    -0.93200
O2220       O  0.11865085  0.14203644  0.16772497    -0.93600
O2221       O  0.10955905  0.16790497  0.14337821    -0.92400
C2222       C  0.18965359  0.16845817  0.12012236     1.16700
H2223       H  0.14985357  0.15045866  0.19325339     0.32600
H2224       H  0.12310689  0.20999546  0.15442927     0.43500
H2225       H  0.20194414  0.18897415  0.14960443     0.37000
H2226       H  0.17344540  0.22353145  0.21467521     0.33500
H2227       H  0.08456903  0.18092017  0.17527378     0.25300
H2228       H  0.15835672  0.26612031  0.18842454     0.31200
H2229       H  0.19968391  0.25281804  0.17446824     0.37100
H2230       H  0.10461463  0.14118738  0.17069350     0.31600
H2231       H  0.16165820  0.13413265  0.14478035     0.30500
H2232       H  0.22148216  0.15797841  0.17894881     0.32100
H2233       H  0.23981127  0.20746699  0.18165178     0.31100
H2234       H  0.11774968  0.17328139  0.13336392     0.35100
H2235       H  0.12964317  0.20228990  0.11831653     0.27800
H2236       H  0.18999356  0.19261605  0.24130860     0.32100
H2237       H  0.21473967  0.20908272  0.21946398     0.34900
H2238       H  0.18189493  0.12429650  0.14929552     0.27500
H2239       H  0.14609559  0.21041761  0.10569058     0.40400
H2240       H  0.10717376  0.24941496  0.19347875     0.30500
H2241       H  0.09300187  0.19843044  0.18663412     0.38100
H2242       H  0.23175514  0.19066605  0.16908408     0.29900
H2243       H  0.15891154  0.25885134  0.20935137     0.30000
H2244       H  0.17740607  0.17713925  0.25075072     0.30200
Zr2245     Zr  0.03909912  0.06258897  0.22540119     2.17500
O2246       O  0.02272422  0.06093402  0.25613600    -0.52100
O2247       O  0.05989495  0.08972333  0.23373043    -0.75300
O2248       O  0.06093631  0.04667534  0.24833270    -0.82100
O2249       O  0.00561796  0.09990301  0.20341678    -0.83800
O2250       O  0.07358829  0.02040308  0.23234978    -0.79500
O2251       O  0.01583366  0.08937366  0.23210289    -0.91100
O2252       O  0.08251946  0.09109272  0.21015588    -0.77100
O2253       O  0.06817225  0.05037483  0.21013931    -0.86600
O2254       O  0.04372313  0.08199930  0.19844813    -0.86200
O2255       O  0.03318522  0.02939738  0.21622878    -0.73000
O2256       O  0.01107170  0.05787251  0.20525027    -0.85100
Zr2257     Zr  0.04143835  0.03380405  0.15440828     2.26400
Zr2258     Zr  0.06241272  0.01776726  0.20017654     2.06300
Zr2259     Zr  0.01649768  0.07738340  0.17830864     2.10000
Zr2260     Zr  0.07319951  0.07058864  0.18402752     1.78800
O2261       O  0.98133740  0.08127700  0.17632843    -0.93900
O2262       O  0.10656759  0.06068028  0.19163484    -0.41700
O2263       O  0.04624444  0.06700436  0.16274725    -0.78400
O2264       O  0.06911798  0.03830244  0.17439372    -0.97100
O2265       O  0.03535816  0.01303423  0.17990268    -0.90400
O2266       O  0.01157111  0.04511690  0.16873805    -0.93200
C2267       C  0.07486586  0.09697736  0.22595410     1.00500
C2268       C  0.00635333  0.10134355  0.22169389     1.13500
C2269       C  0.07203693  0.03140094  0.24719316     1.04300
O2270       O  0.09223583  0.00031572  0.20874239    -0.95400
O2271       O  0.08095374  0.00095345  0.17438517    -0.91100
O2272       O  0.06769503  0.01138295  0.14683182    -0.84300
C2273       C  0.08042924  0.00163163  0.15608185     1.10900
O2274       O  0.98701901  0.01892419  0.22320148    -0.97300
Zr2275     Zr  0.00601235  0.02508026  0.19479263     1.88900
O2276       O  0.02313629  0.00525255  0.15201368    -0.74000
O2277       O  0.04804851  0.98753306  0.20786170    -0.53300
O2278       O  0.00737301  0.99108219  0.20179113    -0.97900
O2279       O  0.97138577  0.03389137  0.19491928    -0.55100
O2280       O  0.99383766  0.01224694  0.16397345    -0.74500
C2281       C  0.00479802  0.00573793  0.15025175     0.97800
O2282       O  0.05654907  0.02916603  0.12306720    -0.63300
O2283       O  0.02163747  0.10905921  0.16576833    -0.58100
O2284       O  0.02169479  0.04905001  0.13016449    -0.94800
O2285       O  0.00880614  0.07612010  0.14454154    -0.93200
O2286       O  0.07600263  0.10312707  0.17285545    -0.93600
O2287       O  0.09252848  0.07173384  0.15493004    -0.92400
C2288       C  0.01131824  0.06466616  0.12996543     1.16700
H2289       H  0.04427547  0.09545237  0.20179115     0.32600
H2290       H  0.08130764  0.03517638  0.16808069     0.43500
H2291       H  0.00077817  0.04487266  0.16006548     0.37000
H2292       H  0.03122133  0.02214875  0.22752135     0.33500
H2293       H  0.10649228  0.05843382  0.20551854     0.25300
H2294       H  0.05239509  0.97850883  0.19740861     0.31200
H2295       H  0.00523150  0.98437983  0.18937603     0.37100
H2296       H  0.08965934  0.10640937  0.17548752     0.31600
H2297       H  0.02606368  0.11694168  0.17679235     0.30500
H2298       H  0.97673316  0.06847114  0.17242455     0.32100
H2299       H  0.96780527  0.03508207  0.18133937     0.31100
H2300       H  0.08453634  0.06548693  0.14497259     0.35100
H2301       H  0.04759694  0.02105725  0.11561795     0.27800
H2302       H  0.03134952  0.06751013  0.26532842     0.32100
H2303       H  0.98817773  0.03064610  0.23138904     0.34900
H2304       H  0.03330833  0.10727311  0.15752081     0.27500
H2305       H  0.05607255  0.04184959  0.11711337     0.40400
H2306       H  0.10204442  0.01027043  0.21058716     0.30500
H2307       H  0.10852045  0.04772701  0.18565427     0.38100
H2308       H  0.97057263  0.04720839  0.20022396     0.29900
H2309       H  0.05530642  0.98312002  0.21916194     0.30000
H2310       H  0.02369731  0.04723772  0.25943127     0.30200
Zr2311     Zr  0.04517739  0.20542353  0.05915412     2.17500
O2312       O  0.02852211  0.23554736  0.05155832    -0.52100
O2313       O  0.07076310  0.21818825  0.07787286    -0.75300
O2314       O  0.03422893  0.21314417  0.09306284    -0.82100
O2315       O  0.08073177  0.20173414  0.01525604    -0.83800
O2316       O  0.01832081  0.18761931  0.10402043    -0.79500
O2317       O  0.07362801  0.22026939  0.04179524    -0.91100
O2318       O  0.08751132  0.19142823  0.08752748    -0.77100
O2319       O  0.04677268  0.18056940  0.08188485    -0.86600
O2320       O  0.07104300  0.18394991  0.05005116    -0.86200
O2321       O  0.01444826  0.18882641  0.05757406    -0.73000
O2322       O  0.03613770  0.19271878  0.02797596    -0.85100
Zr2323     Zr  0.04012332  0.13147310  0.03962427     2.26400
Zr2324     Zr  0.01754267  0.16317478  0.07939760     2.06300
Zr2325     Zr  0.06365495  0.17291369  0.01864872     2.10000
Zr2326     Zr  0.07440063  0.16132785  0.07391469     1.78800
O2327       O  0.05547740  0.18914851  0.98937330    -0.93900
O2328       O  0.07020682  0.15718614  0.10803118    -0.41700
O2329       O  0.06932894  0.14880230  0.04185285    -0.78400
O2330       O  0.04565989  0.14310913  0.07172829    -0.97100
O2331       O  0.01145732  0.14941779  0.04907902    -0.90400
O2332       O  0.03480389  0.15548533  0.01679766    -0.93200
C2333       C  0.08427403  0.20981407  0.08724126     1.00500
C2334       C  0.08426430  0.21565972  0.02671667     1.13500
C2335       C  0.02545343  0.20417477  0.10650693     1.04300
O2336       O  0.01045488  0.15098327  0.11074315    -0.95400
O2337       O  0.00805947  0.13034142  0.08290415    -0.91100
O2338       O  0.02017203  0.11158113  0.05855673    -0.84300
C2339       C  0.01008799  0.11415855  0.07383134     1.10900
O2340       O  0.99399980  0.20320258  0.01312115    -0.97300
Zr2341     Zr  0.00692290  0.17383224  0.02704576     1.88900
O2342       O  0.01549574  0.12088527  0.01830447    -0.74000
O2343       O  0.98306623  0.17207843  0.07779583    -0.53300
O2344       O  0.97471026  0.18264906  0.03961294    -0.97900
O2345       O  0.00082179  0.16916288  0.99299924    -0.55100
O2346       O  0.99051358  0.14240780  0.02317462    -0.74500
C2347       C  0.99736567  0.12529039  0.01875117     0.97800
O2348       O  0.05709251  0.10060904  0.04393685    -0.63300
O2349       O  0.09694563  0.16255502  0.01033710    -0.58100
O2350       O  0.05936522  0.12102649  0.01174996    -0.94800
O2351       O  0.06735274  0.14718396  0.99550743    -0.93200
O2352       O  0.10956201  0.15814849  0.07046417    -0.93600
O2353       O  0.08982269  0.13047438  0.08115582    -0.92400
C2354       C  0.06700776  0.12907884  0.99738833     1.16700
H2355       H  0.08369688  0.18988774  0.05047630     0.32600
H2356       H  0.04664618  0.13254295  0.08026535     0.43500
H2357       H  0.03259098  0.15012173  0.00416879     0.37000
H2358       H  0.00401939  0.19770838  0.06153241     0.33500
H2359       H  0.06466779  0.14435616  0.10921288     0.25300
H2360       H  0.97659661  0.15978954  0.07531235     0.31200
H2361       H  0.96565190  0.17811343  0.02965946     0.37100
H2362       H  0.11166416  0.15172846  0.05781170     0.31600
H2363       H  0.10364300  0.17405607  0.00620651     0.30500
H2364       H  0.04147742  0.18692983  0.98748305     0.32100
H2365       H  0.00700858  0.17988750  0.98666429     0.31100
H2366       H  0.08110149  0.12086945  0.07550980     0.35100
H2367       H  0.07099743  0.10302461  0.04163298     0.27800
H2368       H  0.02766034  0.23511729  0.03744915     0.32100
H2369       H  0.00273201  0.21332240  0.01774382     0.34900
H2370       H  0.10313676  0.15918601  0.02256294     0.27500
H2371       H  0.05639407  0.09846059  0.05780258     0.40400
H2372       H  0.99731900  0.15629778  0.11412406     0.30500
H2373       H  0.08359646  0.15571846  0.11303763     0.38100
H2374       H  0.98665818  0.17169300  0.99151690     0.29900
H2375       H  0.97929142  0.17591234  0.09103407     0.30000
H2376       H  0.03815794  0.24543166  0.05444616     0.30200
Zr2377     Zr  0.16445844  0.01889641  0.06442999     2.17500
O2378       O  0.18209827  0.98846730  0.05836948    -0.52100
O2379       O  0.14198955  0.00977298  0.08925728    -0.75300
O2380       O  0.18205573  0.01347597  0.09462276    -0.82100
O2381       O  0.14191493  0.00850839  0.01900056    -0.83800
O2382       O  0.18741190  0.04340622  0.10645479    -0.79500
O2383       O  0.14115321  0.99753555  0.04839140    -0.91100
O2384       O  0.12249876  0.03586606  0.09725211    -0.77100
O2385       O  0.15860367  0.04616338  0.08506200    -0.86600
O2386       O  0.13485326  0.03450470  0.05479270    -0.86200
O2387       O  0.19217812  0.03902154  0.05998226    -0.73000
O2388       O  0.17097177  0.02874406  0.03211661    -0.85100
Zr2389     Zr  0.15871123  0.09050167  0.03936264     2.26400
Zr2390     Zr  0.18535301  0.06620639  0.08087368     2.06300
Zr2391     Zr  0.14052820  0.04295826  0.02255978     2.10000
Zr2392     Zr  0.12898258  0.06123930  0.07584159     1.78800
O2393       O  0.14351756  0.03437000  0.98878970    -0.93900
O2394       O  0.13031374  0.07694981  0.10730081    -0.41700
O2395       O  0.13224796  0.06988650  0.04322693    -0.78400
O2396       O  0.15529085  0.08222530  0.07221760    -0.97100
O2397       O  0.18901875  0.07701426  0.04941629    -0.90400
O2398       O  0.16635949  0.06420317  0.01804188    -0.93200
C2399       C  0.12853815  0.01850563  0.09926747     1.00500
C2400       C  0.13472124  0.99755229  0.03116284     1.13500
C2401       C  0.18737409  0.02510242  0.10816758     1.04300
O2402       O  0.18602555  0.08351593  0.11153384    -0.95400
O2403       O  0.19441863  0.09929813  0.07902019    -0.91100
O2404       O  0.17925122  0.11369832  0.05434655    -0.84300
C2405       C  0.19104010  0.11372228  0.06841680     1.10900
O2406       O  0.21755617  0.02378519  0.01845911    -0.97300
Zr2407     Zr  0.19680611  0.05129387  0.02834685     1.88900
O2408       O  0.17985023  0.10162960  0.01526824    -0.74000
O2409       O  0.22060624  0.06122762  0.08116283    -0.53300
O2410       O  0.22988186  0.05353954  0.04029067    -0.97900
O2411       O  0.20133236  0.04714038  0.99397053    -0.55100
O2412       O  0.20743269  0.08370102  0.01936118    -0.74500
C2413       C  0.19828987  0.09920796  0.01421464     0.97800
O2414       O  0.13998983  0.12021830  0.04634216    -0.63300
O2415       O  0.10574022  0.03731975  0.02176523    -0.58100
O2416       O  0.13560492  0.09620912  0.01363901    -0.94800
O2417       O  0.12714000  0.06701232  0.00215411    -0.93200
O2418       O  0.09557400  0.05138711  0.07177060    -0.93600
O2419       O  0.10554496  0.08813302  0.07645219    -0.92400
C2420       C  0.12617085  0.08530979  0.00207858     1.16700
H2421       H  0.12379673  0.02658442  0.05595168     0.32600
H2422       H  0.15310728  0.09372316  0.08008042     0.43500
H2423       H  0.16696463  0.06813169  0.00497203     0.37000
H2424       H  0.20375331  0.03202624  0.06376137     0.33500
H2425       H  0.11741367  0.07495037  0.11305936     0.25300
H2426       H  0.22504725  0.06966586  0.09173643     0.31200
H2427       H  0.23770438  0.05687515  0.02904701     0.37100
H2428       H  0.08923512  0.05408422  0.08431648     0.31600
H2429       H  0.10349692  0.02639461  0.03004539     0.30500
H2430       H  0.15759153  0.03180555  0.98663792     0.32100
H2431       H  0.20211821  0.06030363  0.98916695     0.31100
H2432       H  0.11213256  0.09821222  0.06950661     0.35100
H2433       H  0.14221047  0.12831670  0.03524356     0.27800
H2434       H  0.17736958  0.97998686  0.06833820     0.32100
H2435       H  0.21476065  0.01388314  0.02781586     0.34900
H2436       H  0.09969442  0.04853447  0.02879612     0.27500
H2437       H  0.12619843  0.11673963  0.04525441     0.40400
H2438       H  0.17263207  0.08285681  0.11661359     0.30500
H2439       H  0.13938924  0.06869323  0.11464056     0.38100
H2440       H  0.18882095  0.04254370  0.98908883     0.29900
H2441       H  0.22304284  0.04805237  0.08566379     0.30000
H2442       H  0.19567785  0.99100232  0.06201222     0.30200
Zr2443     Zr  0.24943406  0.26694528  0.96966422     2.17500
O2444       O  0.27264177  0.27859040  0.94658223    -0.52100
O2445       O  0.24753543  0.30251471  0.97447096    -0.75300
O2446       O  0.23820172  0.26565010  0.93656464    -0.82100
O2447       O  0.29027229  0.24549489  0.00129457    -0.83800
O2448       O  0.20743862  0.25470048  0.93467636    -0.79500
O2449       O  0.28445395  0.25957947  0.97300495    -0.91100
O2450       O  0.22715488  0.31038094  0.99916577    -0.77100
O2451       O  0.21594692  0.27451732  0.97647776    -0.86600
O2452       O  0.24859856  0.27375506  0.00324144    -0.86200
O2453       O  0.23190470  0.23842655  0.96113155    -0.73000
O2454       O  0.26007162  0.23819441  0.98506334    -0.85100
Zr2455     Zr  0.20798107  0.22481668  0.01669730     2.26400
Zr2456     Zr  0.19809969  0.24630958  0.96773039     2.06300
Zr2457     Zr  0.25918114  0.24480512  0.01862699     2.10000
Zr2458     Zr  0.21515851  0.28091377  0.01021250     1.78800
O2459       O  0.28170659  0.22118037  0.03205995    -0.93900
O2460       O  0.18713449  0.30127921  0.00183884    -0.41700
O2461       O  0.22577259  0.25254562  0.02597719    -0.78400
O2462       O  0.19674893  0.25380055  0.00141383    -0.97100
O2463       O  0.20907712  0.21748825  0.98332891    -0.90400
O2464       O  0.24124785  0.21671055  0.01048760    -0.93200
C2465       C  0.23874769  0.31484998  0.98595518     1.00500
C2466       C  0.29599508  0.25158867  0.98508245     1.13500
C2467       C  0.22315808  0.26078998  0.92700418     1.04300
O2468       O  0.17382795  0.27017729  0.95783391    -0.95400
O2469       O  0.16593482  0.23822472  0.98162950    -0.91100
O2470       O  0.17333225  0.22695632  0.01088738    -0.84300
C2471       C  0.16102694  0.23149099  0.99792935     1.10900
O2472       O  0.26747667  0.20078983  0.95347409    -0.97300
Zr2473     Zr  0.24263080  0.21018683  0.97702926     1.88900
O2474       O  0.21113114  0.18942103  0.01419728    -0.74000
O2475       O  0.18617447  0.22097358  0.94664715    -0.53300
O2476       O  0.23119394  0.19606352  0.94706826    -0.97900
O2477       O  0.27202615  0.19379816  0.98844657    -0.55100
O2478       O  0.22921791  0.18098522  0.98801364    -0.74500
C2479       C  0.21873795  0.17686241  0.00229174     0.97800
O2480       O  0.18484711  0.21338988  0.03983367    -0.63300
O2481       O  0.27437121  0.27058533  0.03680274    -0.58100
O2482       O  0.21844962  0.22865375  0.04979773    -0.94800
O2483       O  0.24963392  0.23834150  0.05159366    -0.93200
O2484       O  0.22928191  0.29664054  0.03808882    -0.93600
O2485       O  0.19169076  0.28580640  0.03614588    -0.92400
C2486       C  0.23366556  0.23316174  0.05925073     1.16700
H2487       H  0.25667275  0.28433500  0.00664245     0.32600
H2488       H  0.18380113  0.25814049  0.00525543     0.43500
H2489       H  0.24568145  0.20589633  0.01778942     0.37000
H2490       H  0.23393139  0.23436486  0.94806035     0.33500
H2491       H  0.19014213  0.31434682  0.00666553     0.25300
H2492       H  0.17938985  0.21224271  0.95512123     0.31200
H2493       H  0.22634851  0.18338161  0.95035309     0.37100
H2494       H  0.23877613  0.28706274  0.04304704     0.31600
H2495       H  0.28312701  0.26398454  0.04585686     0.30500
H2496       H  0.28991344  0.22863816  0.04093580     0.32100
H2497       H  0.26753564  0.18476719  0.99801927     0.31100
H2498       H  0.18369920  0.27426266  0.03575400     0.35100
H2499       H  0.19207702  0.20316989  0.04661900     0.27800
H2500       H  0.26582780  0.28923007  0.94002403     0.32100
H2501       H  0.26740536  0.21151615  0.94456374     0.34900
H2502       H  0.28324349  0.27647738  0.02769435     0.27500
H2503       H  0.18257478  0.22393055  0.04944782     0.40400
H2504       H  0.16716837  0.26396868  0.94690482     0.30500
H2505       H  0.18775154  0.30207307  0.98778010     0.38100
H2506       H  0.27888572  0.20371299  0.99597048     0.29900
H2507       H  0.17564621  0.22728173  0.93927382     0.30000
H2508       H  0.27449876  0.26825188  0.93666222     0.30200
Zr2509     Zr  0.18411418  0.01215623  0.23404762     2.17500
O2510       O  0.15608939  0.01574642  0.21302163    -0.52100
O2511       O  0.18358174  0.04724931  0.23533052    -0.75300
O2512       O  0.15303367  0.01503688  0.25126801    -0.82100
O2513       O  0.21998120  0.00178612  0.19254898    -0.83800
O2514       O  0.15521476  0.00323125  0.28115892    -0.79500
O2515       O  0.18842254  0.01072931  0.19916430    -0.91100
O2516       O  0.21042259  0.05740960  0.25004402    -0.77100
O2517       O  0.19188070  0.01998878  0.26630221    -0.86600
O2518       O  0.21718091  0.02137093  0.23305831    -0.86200
O2519       O  0.17927738  0.98355489  0.25170419    -0.73000
O2520       O  0.20319009  0.98517071  0.22152071    -0.85100
Zr2521     Zr  0.23952885  0.97256981  0.27139385     2.26400
Zr2522     Zr  0.18863499  0.99124839  0.28408419     2.06300
Zr2523     Zr  0.23659277  0.99393402  0.22211640     2.10000
Zr2524     Zr  0.22461409  0.02940899  0.26529201     1.78800
O2525       O  0.24974375  0.96822632  0.20105123    -0.93900
O2526       O  0.20957556  0.04781118  0.29188672    -0.41700
O2527       O  0.24362198  0.00173708  0.25456446    -0.78400
O2528       O  0.22164244  0.00094462  0.28356508    -0.97100
O2529       O  0.20655518  0.96369105  0.27151207    -0.90400
O2530       O  0.23216011  0.96491414  0.23890909    -0.93200
C2531       C  0.19492504  0.06066362  0.24046196     1.00500
C2532       C  0.20273819  0.00717896  0.18750921     1.13500
C2533       C  0.14579137  0.01127579  0.26762092     1.04300
O2534       O  0.17990133  0.01243042  0.31118557    -0.95400
O2535       O  0.20473204  0.98188888  0.31373397    -0.91100
O2536       O  0.23597968  0.97308890  0.30609079    -0.84300
C2537       C  0.22214959  0.97644224  0.31821043     1.10900
O2538       O  0.16845742  0.95282676  0.22115217    -0.97300
Zr2539     Zr  0.19852626  0.95689658  0.23895231     1.88900
O2540       O  0.23929941  0.93698730  0.26671844    -0.74000
O2541       O  0.16984882  0.96462485  0.29495208    -0.53300
O2542       O  0.17776481  0.93577236  0.25640332    -0.97900
O2543       O  0.20528142  0.94157864  0.20780885    -0.55100
O2544       O  0.21612533  0.92773683  0.24575111    -0.74500
C2545       C  0.23000275  0.92402632  0.25720675     0.97800
O2546       O  0.26534905  0.95974999  0.29163377    -0.63300
O2547       O  0.25676313  0.01586538  0.20503493    -0.58100
O2548       O  0.27213651  0.98076590  0.26102797    -0.94800
O2549       O  0.27063873  0.99493976  0.23235882    -0.93200
O2550       O  0.25135805  0.04691887  0.25222733    -0.93600
O2551       O  0.24916079  0.03955399  0.28799384    -0.92400
C2552       C  0.28005509  0.98918224  0.24707559     1.16700
H2553       H  0.21897509  0.03188107  0.22456783     0.32600
H2554       H  0.22580733  0.00483591  0.29614908     0.43500
H2555       H  0.24051804  0.95458502  0.23385336     0.37000
H2556       H  0.16582221  0.98003165  0.25125220     0.33500
H2557       H  0.21596039  0.06030770  0.29205109     0.25300
H2558       H  0.17956978  0.95410256  0.29709293     0.31200
H2559       H  0.17871309  0.92322050  0.24940714     0.37100
H2560       H  0.25921062  0.03713800  0.24481052     0.31600
H2561       H  0.25573377  0.01207427  0.19136890     0.30500
H2562       H  0.26248988  0.96455915  0.20663762     0.32100
H2563       H  0.21964098  0.94030867  0.20703772     0.31100
H2564       H  0.24986449  0.02933244  0.29745742     0.35100
H2565       H  0.27382794  0.95148811  0.28315360     0.27800
H2566       H  0.14837662  0.02708512  0.21800890     0.32100
H2567       H  0.16680092  0.93879853  0.21993529     0.34900
H2568       H  0.24988987  0.02853769  0.20632171     0.27500
H2569       H  0.27330395  0.97083149  0.29527643     0.40400
H2570       H  0.19054243  0.02161784  0.31202164     0.30500
H2571       H  0.19609668  0.05089000  0.28775318     0.38100
H2572       H  0.20178724  0.95150719  0.19849552     0.29900
H2573       H  0.16537747  0.96872603  0.30792474     0.30000
H2574       H  0.14795943  0.00463456  0.21545161     0.30200
Zr2575     Zr  0.00714757  0.00433352  0.02355456     2.17500
O2576       O  0.03186345  0.02696677  0.03251380    -0.52100
O2577       O  0.00272383  0.00249546  0.05852927    -0.75300
O2578       O  0.99403969  0.03802269  0.02209300    -0.82100
O2579       O  0.04897135  0.96646641  0.01138855    -0.83800
O2580       O  0.96374068  0.03851650  0.00891331    -0.79500
O2581       O  0.04270695  0.99661867  0.02364179    -0.91100
O2582       O  0.98346540  0.97766988  0.06526438    -0.77100
O2583       O  0.97389569  0.99755128  0.02968981    -0.86600
O2584       O  0.00646060  0.97098895  0.03004562    -0.86200
O2585       O  0.98985902  0.01134122  0.99456596    -0.73000
O2586       O  0.01939122  0.98770435  0.99518102    -0.85100
Zr2587     Zr  0.96742230  0.95459532  0.97958884     2.26400
Zr2588     Zr  0.95643058  0.00492444  0.00094316     2.06300
Zr2589     Zr  0.01818011  0.95447493  0.00179995     2.10000
Zr2590     Zr  0.97330852  0.96394175  0.03546961     1.78800
O2591       O  0.04466115  0.94395386  0.98037498    -0.93900
O2592       O  0.94251015  0.97469732  0.05027416    -0.41700
O2593       O  0.98523104  0.94634678  0.00779863    -0.78400
O2594       O  0.95530996  0.97142313  0.00784798    -0.97100
O2595       O  0.96806701  0.98783814  0.97267381    -0.90400
O2596       O  0.00058180  0.96115346  0.97322861    -0.93200
C2597       C  0.99398468  0.99165751  0.07021947     1.00500
C2598       C  0.05435768  0.98231880  0.01882876     1.13500
C2599       C  0.97860547  0.04697868  0.01592386     1.04300
O2600       O  0.93217182  0.01658498  0.02427907    -0.95400
O2601       O  0.92532724  0.99146689  0.99131369    -0.91100
O2602       O  0.93189212  0.96137732  0.97882560    -0.84300
C2603       C  0.91996173  0.97536291  0.98388237     1.10900
O2604       O  0.02281516  0.02076512  0.96222359    -0.97300
Zr2605     Zr  0.00132996  0.99426262  0.96680689     1.88900
O2606       O  0.97048287  0.95613340  0.94508280    -0.74000
O2607       O  0.94312320  0.02357778  0.97494564    -0.53300
O2608       O  0.98568092  0.02108935  0.95065467    -0.97900
O2609       O  0.03214203  0.98626236  0.95081886    -0.55100
O2610       O  0.99042546  0.97987230  0.93711632    -0.74500
C2611       C  0.97899614  0.96632639  0.93282421     0.97800
O2612       O  0.94472266  0.92940903  0.97172385    -0.63300
O2613       O  0.02769006  0.93291806  0.02715713    -0.58100
O2614       O  0.98332298  0.92250454  0.97833157    -0.94800
O2615       O  0.01482119  0.92323343  0.98809062    -0.93200
O2616       O  0.98565552  0.93828895  0.05538372    -0.93600
O2617       O  0.95343476  0.93579076  0.03750345    -0.92400
C2618       C  0.00023713  0.91469813  0.98127721     1.16700
H2619       H  0.01447181  0.96793256  0.04087712     0.32600
H2620       H  0.94242656  0.96771576  0.01113142     0.43500
H2621       H  0.00569535  0.95333813  0.96264939     0.37000
H2622       H  0.99151675  0.02438948  0.99072318     0.33500
H2623       H  0.93233622  0.96711179  0.04392076     0.25300
H2624       H  0.93344746  0.03258430  0.98114356     0.31200
H2625       H  0.97734167  0.01524055  0.94075324     0.37100
H2626       H  0.99404735  0.93008433  0.04677584     0.31600
H2627       H  0.03552660  0.92244630  0.02071257     0.30500
H2628       H  0.05344951  0.93584336  0.98816877     0.32100
H2629       H  0.02954669  0.98809520  0.93710883     0.31100
H2630       H  0.95075869  0.93198759  0.02407084     0.35100
H2631       H  0.95097373  0.92129552  0.96144202     0.27800
H2632       H  0.02747234  0.03222197  0.04509384     0.32100
H2633       H  0.02732742  0.02426213  0.97522773     0.34900
H2634       H  0.03720173  0.93997185  0.03497769     0.27500
H2635       H  0.94459987  0.92120454  0.98300037     0.40400
H2636       H  0.93888979  0.01610096  0.03672522     0.30500
H2637       H  0.94315067  0.96983523  0.06337298     0.38100
H2638       H  0.03407551  0.97223207  0.95199600     0.29900
H2639       H  0.95381066  0.03179463  0.97109441     0.30000
H2640       H  0.03051508  0.03772881  0.02366261     0.30200
Zr2641     Zr  0.00817556  0.22232296  0.23408250     2.17500
O2642       O  0.03541209  0.19951389  0.22887483    -0.52100
O2643       O  0.01345505  0.22234579  0.19931670    -0.75300
O2644       O  0.99916994  0.18880611  0.23521943    -0.82100
O2645       O  0.04263241  0.26053946  0.25343837    -0.83800
O2646       O  0.96716585  0.18678462  0.24273403    -0.79500
O2647       O  0.04105799  0.22932930  0.24383633    -0.91100
O2648       O  0.99098086  0.24170661  0.18545303    -0.77100
O2649       O  0.97596799  0.22478114  0.22196660    -0.86600
O2650       O  0.00515875  0.25425166  0.22308482    -0.86200
O2651       O  0.98751218  0.21642707  0.26102015    -0.73000
O2652       O  0.01277873  0.24296437  0.26146681    -0.85100
Zr2653     Zr  0.95544257  0.27210086  0.26582129     2.26400
Zr2654     Zr  0.95510789  0.21964206  0.24883315     2.06300
Zr2655     Zr  0.00936816  0.27491826  0.25066988     2.10000
Zr2656     Zr  0.97260893  0.25695939  0.21164497     1.78800
O2657       O  0.02494051  0.29438941  0.27523190    -0.93900
O2658       O  0.94774832  0.24306711  0.19126325    -0.41700
O2659       O  0.97670559  0.27706527  0.23932968    -0.78400
O2660       O  0.95093329  0.25172522  0.23768339    -0.97100
O2661       O  0.95915553  0.24016347  0.27664086    -0.90400
O2662       O  0.98806608  0.27008284  0.27742151    -0.93200
C2663       C  0.00556200  0.22980029  0.18451950     1.00500
C2664       C  0.05053999  0.24366185  0.25023096     1.13500
C2665       C  0.98396237  0.17923156  0.23846552     1.04300
O2666       O  0.93504217  0.20376494  0.22503782    -0.95400
O2667       O  0.92137423  0.23071418  0.25169385    -0.91100
O2668       O  0.92179670  0.26189339  0.26210722    -0.84300
C2669       C  0.91285166  0.24676412  0.25664001     1.10900
O2670       O  0.01617530  0.21507220  0.29945257    -0.97300
Zr2671     Zr  0.99178332  0.23791965  0.28788686     1.88900
O2672       O  0.95495261  0.27708848  0.30114862    -0.74000
O2673       O  0.94207187  0.20150736  0.27481029    -0.53300
O2674       O  0.98016846  0.21066218  0.30504313    -0.97900
O2675       O  0.01810760  0.25206545  0.30604958    -0.55100
O2676       O  0.97440935  0.25417934  0.31426123    -0.74500
C2677       C  0.96227057  0.26851080  0.31569756     0.97800
O2678       O  0.92861966  0.29521934  0.27254797    -0.63300
O2679       O  0.02806651  0.29140159  0.22693710    -0.58100
O2680       O  0.96209580  0.30456823  0.25576112    -0.94800
O2681       O  0.99357226  0.30657491  0.24636294    -0.93200
O2682       O  0.98569497  0.28447306  0.19603002    -0.93600
O2683       O  0.94878873  0.28003564  0.19942072    -0.92400
C2684       C  0.97631356  0.31391113  0.24913576     1.16700
H2685       H  0.01461693  0.25677369  0.21337499     0.32600
H2686       H  0.93833182  0.25395418  0.23211014     0.43500
H2687       H  0.99019822  0.27941787  0.28759107     0.37000
H2688       H  0.98999374  0.20388668  0.26596038     0.33500
H2689       H  0.95374585  0.23092173  0.18602068     0.25300
H2690       H  0.93409814  0.19168267  0.26840869     0.31200
H2691       H  0.97043682  0.21614809  0.31425175     0.37100
H2692       H  0.99292872  0.29137731  0.20613171     0.31600
H2693       H  0.03579015  0.30063324  0.23446399     0.30500
H2694       H  0.01451664  0.30325071  0.28034281     0.32100
H2695       H  0.01222101  0.26370310  0.31246615     0.31100
H2696       H  0.93678744  0.27811027  0.20683918     0.35100
H2697       H  0.93412303  0.30554791  0.28064747     0.27800
H2698       H  0.03177579  0.19122551  0.21786548     0.32100
H2699       H  0.02080678  0.20791018  0.28781480     0.34900
H2700       H  0.03776396  0.28172555  0.22187825     0.27500
H2701       H  0.92548486  0.30129963  0.26030170     0.40400
H2702       H  0.94211798  0.20499754  0.21284455     0.30500
H2703       H  0.93756323  0.23896643  0.20012217     0.38100
H2704       H  0.02690062  0.25704756  0.29628781     0.29900
H2705       H  0.95341125  0.19416694  0.27981726     0.30000
H2706       H  0.03539014  0.19097788  0.23989689     0.30200
Zr2707     Zr  0.45255185  0.76695840  0.26263490     2.17500
O2708       O  0.43748040  0.79048019  0.28510846    -0.52100
O2709       O  0.41722667  0.76182857  0.26104485    -0.75300
O2710       O  0.45374833  0.80045677  0.25177917    -0.82100
O2711       O  0.46623975  0.73089759  0.30242650    -0.83800
O2712       O  0.46714304  0.80121525  0.22210497    -0.79500
O2713       O  0.45571166  0.76152408  0.29703270    -0.91100
O2714       O  0.41159794  0.73520344  0.24288592    -0.77100
O2715       O  0.44713548  0.76065593  0.22947966    -0.86600
O2716       O  0.44674614  0.73345192  0.25997307    -0.86200
O2717       O  0.48249582  0.77428979  0.24671810    -0.73000
O2718       O  0.48095561  0.75006365  0.27435613    -0.85100
Zr2719     Zr  0.49946728  0.71724938  0.22173099     2.26400
Zr2720     Zr  0.47692131  0.76767743  0.21334814     2.06300
Zr2721     Zr  0.47496487  0.71654541  0.27119289     2.10000
Zr2722     Zr  0.44164862  0.72708818  0.22682230     1.78800
O2723       O  0.49922332  0.70443696  0.29347317    -0.93900
O2724       O  0.42294242  0.74311466  0.20204489    -0.41700
O2725       O  0.46990048  0.70993225  0.23793739    -0.78400
O2726       O  0.47062913  0.73400436  0.21016841    -0.97100
O2727       O  0.50564522  0.75072047  0.22464725    -0.90400
O2728       O  0.50448325  0.72351108  0.25497581    -0.93200
C2729       C  0.40603021  0.74872997  0.25450324     1.00500
C2730       C  0.46023816  0.74773748  0.30825715     1.13500
C2731       C  0.45971103  0.80961230  0.23721309     1.04300
O2732       O  0.45197918  0.77693600  0.19052440    -0.95400
O2733       O  0.48760165  0.75391537  0.18204691    -0.91100
O2734       O  0.50006967  0.72384027  0.18708928    -0.84300
C2735       C  0.49502871  0.73759308  0.17594062     1.10900
O2736       O  0.51310482  0.78515005  0.27902742    -0.97300
Zr2737     Zr  0.51032505  0.75689698  0.25800375     1.88900
O2738       O  0.53501442  0.71825008  0.22782535    -0.74000
O2739       O  0.50096581  0.78921357  0.20133987    -0.53300
O2740       O  0.52908519  0.78171781  0.24357940    -0.97900
O2741       O  0.52411115  0.74915624  0.28893839    -0.55100
O2742       O  0.54124931  0.74119637  0.25044398    -0.74500
C2743       C  0.54669457  0.72770337  0.23867162     0.97800
O2744       O  0.51446180  0.69067984  0.20292808    -0.63300
O2745       O  0.44932580  0.69659381  0.28294001    -0.58100
O2746       O  0.49310741  0.68407279  0.23088853    -0.94800
O2747       O  0.48249432  0.68328410  0.26164183    -0.93200
O2748       O  0.42544021  0.69758018  0.23364452    -0.93600
O2749       O  0.43796280  0.70364725  0.20067570    -0.92400
C2750       C  0.48799143  0.67502632  0.24582282     1.16700
H2751       H  0.43597483  0.73001351  0.26790437     0.32600
H2752       H  0.46735166  0.73024268  0.19725831     0.43500
H2753       H  0.51511762  0.71565745  0.25983702     0.37000
H2754       H  0.48617123  0.78737807  0.24902725     0.33500
H2755       H  0.41272578  0.73407029  0.19838143     0.25300
H2756       H  0.49345011  0.79854585  0.19364763     0.31200
H2757       H  0.54232990  0.78007630  0.24887973     0.37100
H2758       H  0.43252956  0.69238505  0.24472131     0.31600
H2759       H  0.45563023  0.68898105  0.29302818     0.30500
H2760       H  0.50129039  0.71516000  0.30272926     0.32100
H2761       H  0.52949948  0.73586175  0.28732952     0.31100
H2762       H  0.44059169  0.71054980  0.18886001     0.35100
H2763       H  0.50475211  0.68738473  0.19309363     0.27800
H2764       H  0.42695769  0.79708265  0.27796206     0.32100
H2765       H  0.52703448  0.78566467  0.28241564     0.34900
H2766       H  0.44006840  0.70546213  0.28991106     0.27500
H2767       H  0.52527584  0.69622515  0.19581474     0.40400
H2768       H  0.45904144  0.78366347  0.18052993     0.30500
H2769       H  0.41578451  0.75393762  0.20868701     0.38100
H2770       H  0.51273721  0.74807373  0.29748891     0.29900
H2771       H  0.50515791  0.79675890  0.21269637     0.30000
H2772       H  0.44725520  0.80033977  0.28756619     0.30200
Zr2773     Zr  0.00457300  0.51637272  0.50308922     2.17500
O2774       O  0.01985469  0.54025859  0.52364804    -0.52100
O2775       O  0.04053443  0.50922333  0.49851434    -0.75300
O2776       O  0.00258808  0.50897864  0.53766452    -0.82100
O2777       O  0.99272531  0.55375213  0.46398712    -0.83800
O2778       O  0.98870625  0.48014659  0.54103033    -0.79500
O2779       O  0.00070556  0.55057537  0.49523633    -0.91100
O2780       O  0.04604541  0.48415637  0.47753593    -0.77100
O2781       O  0.00893723  0.48248359  0.49891242    -0.86600
O2782       O  0.01137320  0.51069488  0.46990431    -0.86200
O2783       O  0.97349672  0.50378941  0.51217532    -0.73000
O2784       O  0.97633671  0.52790657  0.48570294    -0.85100
Zr2785     Zr  0.95726985  0.47472668  0.45734892     2.26400
Zr2786     Zr  0.97855920  0.46972021  0.50849281     2.06300
Zr2787     Zr  0.98345982  0.52214832  0.45259676     2.10000
Zr2788     Zr  0.01474603  0.47673757  0.46547166     1.78800
O2789       O  0.96100064  0.54597474  0.43932122    -0.93900
O2790       O  0.02887249  0.44560103  0.47395867    -0.41700
O2791       O  0.98739973  0.48809551  0.44788385    -0.78400
O2792       O  0.98521599  0.46318906  0.47508329    -0.97100
O2793       O  0.95043440  0.48050774  0.49054781    -0.90400
O2794       O  0.95288566  0.50874429  0.46078336    -0.93200
C2795       C  0.05198711  0.49705356  0.48911095     1.00500
C2796       C  0.99711672  0.56072035  0.48046695     1.13500
C2797       C  0.99660561  0.49532301  0.54808519     1.04300
O2798       O  0.00303234  0.44621616  0.51876490    -0.95400
O2799       O  0.96656753  0.43855238  0.49829495    -0.91100
O2800       O  0.95450512  0.44166045  0.46818400    -0.84300
C2801       C  0.95882362  0.43179592  0.48295287     1.10900
O2802       O  0.94014302  0.53897799  0.51864831    -0.97300
Zr2803     Zr  0.94577966  0.51431966  0.49373342     1.88900
O2804       O  0.92182830  0.48270565  0.45591483    -0.74000
O2805       O  0.95376467  0.46035732  0.53102404    -0.53300
O2806       O  0.92657659  0.50198975  0.51961989    -0.97900
O2807       O  0.93045116  0.54432910  0.48358438    -0.55100
O2808       O  0.91504850  0.50570131  0.47871979    -0.74500
C2809       C  0.90978876  0.49407024  0.46529181     0.97800
O2810       O  0.94534833  0.44962774  0.43586889    -0.63300
O2811       O  0.00889532  0.53150062  0.43078678    -0.58100
O2812       O  0.96394224  0.48113922  0.42347607    -0.94800
O2813       O  0.97624527  0.51076399  0.42046924    -0.93200
O2814       O  0.03172351  0.48895206  0.43806759    -0.93600
O2815       O  0.01797140  0.45205654  0.44026194    -0.92400
C2816       C  0.96986467  0.49502894  0.41339877     1.16700
H2817       H  0.02287068  0.51703667  0.46606562     0.32600
H2818       H  0.98797516  0.44974016  0.47253809     0.43500
H2819       H  0.94271419  0.51361034  0.45263973     0.37000
H2820       H  0.97000312  0.50743040  0.52516161     0.33500
H2821       H  0.04312751  0.44701976  0.47358269     0.25300
H2822       H  0.95302105  0.47072350  0.54097683     0.31200
H2823       H  0.93538410  0.50173299  0.53074667     0.37100
H2824       H  0.04497485  0.48300661  0.43856633     0.31600
H2825       H  0.00273522  0.54193817  0.42337763     0.30500
H2826       H  0.95810316  0.55541589  0.44985388     0.32100
H2827       H  0.91635926  0.54301104  0.48592193     0.31100
H2828       H  0.00487287  0.44666194  0.43924341     0.35100
H2829       H  0.93659277  0.45626647  0.42682458     0.27800
H2830       H  0.02957280  0.53303958  0.53124822     0.32100
H2831       H  0.95238700  0.53911357  0.52600455     0.34900
H2832       H  0.01858626  0.53800105  0.43885981     0.27500
H2833       H  0.95674777  0.44509044  0.42811141     0.40400
H2834       H  0.99559483  0.43637895  0.52523797     0.30500
H2835       H  0.02574511  0.44443179  0.48764830     0.38100
H2836       H  0.93173135  0.54396534  0.46952418     0.29900
H2837       H  0.94134343  0.46175195  0.52403140     0.30000
H2838       H  0.00972409  0.54479828  0.53295373     0.30200
Zr2839     Zr  0.50851329  0.51448863  0.03352963     2.17500
O2840       O  0.51979907  0.53575894  0.05916696    -0.52100
O2841       O  0.54409353  0.51185985  0.02978555    -0.75300
O2842       O  0.50943846  0.49996807  0.06497958    -0.82100
O2843       O  0.49688295  0.55653695  0.00035917    -0.83800
O2844       O  0.49973003  0.46913868  0.06333830    -0.79500
O2845       O  0.50518601  0.54932853  0.03068971    -0.91100
O2846       O  0.55169568  0.49100462  0.00518687    -0.77100
O2847       O  0.51503301  0.48163531  0.02504349    -0.86600
O2848       O  0.51572022  0.51383646  0.00018683    -0.86200
O2849       O  0.47905030  0.49842290  0.04090861    -0.73000
O2850       O  0.48009591  0.52763469  0.01810754    -0.85100
Zr2851     Zr  0.46431233  0.47659883  0.98277213     2.26400
Zr2852     Zr  0.48570064  0.46543397  0.03174257     2.06300
Zr2853     Zr  0.48714716  0.52643562  0.98462338     2.10000
Zr2854     Zr  0.52166330  0.48073554  0.99172738     1.78800
O2855       O  0.46021925  0.54840875  0.97683646    -0.93900
O2856       O  0.53929438  0.45151281  0.00090758    -0.41700
O2857       O  0.49343916  0.49328170  0.97621415    -0.78400
O2858       O  0.49304974  0.46375013  0.99823833    -0.97100
O2859       O  0.45697170  0.47760195  0.01607845    -0.90400
O2860       O  0.45799061  0.50978358  0.99096334    -0.93200
C2861       C  0.55632732  0.50256630  0.01874621     1.00500
C2862       C  0.50222111  0.56137872  0.01736100     1.13500
C2863       C  0.50633757  0.48370931  0.07242921     1.04300
O2864       O  0.50702869  0.43791285  0.03858009    -0.95400
O2865       O  0.47493962  0.43524397  0.01840388    -0.91100
O2866       O  0.46373136  0.44141884  0.98866772    -0.84300
C2867       C  0.46824503  0.42980767  0.00218160     1.10900
O2868       O  0.44593683  0.52873637  0.05444827    -0.97300
Zr2869     Zr  0.45110642  0.51075407  0.02435983     1.88900
O2870       O  0.42873563  0.48385363  0.98291676    -0.74000
O2871       O  0.46063724  0.45703466  0.05434244    -0.53300
O2872       O  0.43046315  0.49457194  0.04665367    -0.97900
O2873       O  0.43620704  0.54238152  0.01902359    -0.55100
O2874       O  0.42127464  0.50444296  0.00778027    -0.74500
C2875       C  0.41655551  0.49422919  0.99318799     0.97800
O2876       O  0.45180688  0.45845636  0.95574997    -0.63300
O2877       O  0.50896919  0.54314539  0.96381221    -0.58100
O2878       O  0.47245347  0.48679975  0.95029728    -0.94800
O2879       O  0.48350156  0.51720663  0.95078765    -0.93200
O2880       O  0.53790783  0.49396880  0.96438502    -0.93600
O2881       O  0.52642666  0.45648215  0.96624186    -0.92400
C2882       C  0.47860319  0.50169869  0.94185924     1.16700
H2883       H  0.52672327  0.52148044  0.99737439     0.32600
H2884       H  0.49648975  0.45083798  0.99393210     0.43500
H2885       H  0.44745367  0.51516028  0.98354920     0.37000
H2886       H  0.47583902  0.49965316  0.05431707     0.33500
H2887       H  0.55298423  0.45331372  0.99714926     0.25300
H2888       H  0.46547846  0.44479265  0.05968831     0.31200
H2889       H  0.41789912  0.50195369  0.04668677     0.37100
H2890       H  0.52927196  0.50481558  0.96053881     0.31600
H2891       H  0.50262157  0.55594590  0.96210870     0.30500
H2892       H  0.46530619  0.55625132  0.96652641     0.32100
H2893       H  0.43161513  0.54182286  0.00566133     0.31100
H2894       H  0.54047384  0.45627898  0.96308535     0.35100
H2895       H  0.46107909  0.44734713  0.95428497     0.27800
H2896       H  0.53122006  0.52905915  0.06483718     0.32100
H2897       H  0.43217483  0.53340780  0.05440604     0.34900
H2898       H  0.52062380  0.54570354  0.97159351     0.27500
H2899       H  0.43960658  0.45298815  0.96028978     0.40400
H2900       H  0.49989293  0.43069516  0.04817354     0.30500
H2901       H  0.53944286  0.45210983  0.01502408     0.38100
H2902       H  0.44719870  0.55117054  0.01887046     0.29900
H2903       H  0.46150503  0.46654054  0.06505839     0.30000
H2904       H  0.50961402  0.53609274  0.06918706     0.30200
Zr2905     Zr  0.43925924  0.97975258  0.46535242     2.17500
O2906       O  0.42668000  0.95326362  0.44596500    -0.52100
O2907       O  0.40333160  0.98473762  0.46900454    -0.75300
O2908       O  0.44594676  0.94700389  0.47673861    -0.82100
O2909       O  0.44149835  0.01493872  0.42465307    -0.83800
O2910       O  0.46296470  0.94729782  0.50445437    -0.79500
O2911       O  0.43774773  0.98353971  0.43094415    -0.91100
O2912       O  0.39655121  0.00823819  0.49140184    -0.77100
O2913       O  0.43550384  0.98683375  0.49865981    -0.86600
O2914       O  0.43023218  0.01301801  0.46771143    -0.86200
O2915       O  0.47135855  0.97439977  0.47853046    -0.73000
O2916       O  0.46484458  0.99684032  0.45022451    -0.85100
Zr2917     Zr  0.48336826  0.03128023  0.50133739     2.26400
Zr2918     Zr  0.46722548  0.98108472  0.51216496     2.06300
Zr2919     Zr  0.45568738  0.03011758  0.45332844     2.10000
Zr2920     Zr  0.42699032  0.02034568  0.50094516     1.78800
O2921       O  0.47905360  0.03837862  0.42898140    -0.93900
O2922       O  0.41339024  0.00969483  0.53081295    -0.41700
O2923       O  0.45233400  0.03754858  0.48683680    -0.78400
O2924       O  0.45739222  0.01433633  0.51577190    -0.97100
O2925       O  0.49298243  0.99827221  0.49796621    -0.90400
O2926       O  0.48707428  0.02522167  0.46773536    -0.93200
C2927       C  0.39139711  0.99585400  0.47889796     1.00500
C2928       C  0.43709717  0.99768858  0.41960776     1.13500
C2929       C  0.45522751  0.93852840  0.49022085     1.04300
O2930       O  0.44378296  0.97015646  0.53516816    -0.95400
O2931       O  0.47940044  0.99457631  0.54221856    -0.91100
O2932       O  0.48677212  0.02524738  0.53565970    -0.84300
C2933       C  0.48520634  0.01130632  0.54724587     1.10900
O2934       O  0.49981585  0.96941514  0.43753148    -0.97300
Zr2935     Zr  0.49625282  0.99223129  0.46442329     1.88900
O2936       O  0.51897615  0.02810486  0.49767953    -0.74000
O2937       O  0.49457569  0.96240405  0.52485390    -0.53300
O2938       O  0.51708516  0.96369970  0.46836639    -0.97900
O2939       O  0.51167392  0.00878395  0.43854687    -0.55100
O2940       O  0.52629200  0.00186005  0.47878114    -0.74500
C2941       C  0.53111816  0.01569141  0.48997284     0.97800
O2942       O  0.49466769  0.05984179  0.51820118    -0.63300
O2943       O  0.42993513  0.05119885  0.44104845    -0.58100
O2944       O  0.47512257  0.06383114  0.49084407    -0.94800
O2945       O  0.46040581  0.06374724  0.46175242    -0.93200
O2946       O  0.40591331  0.04655355  0.49017591    -0.93600
O2947       O  0.42354461  0.04676001  0.52434002    -0.92400
C2948       C  0.46732476  0.07234761  0.47655525     1.16700
H2949       H  0.41835917  0.01593018  0.46095312     0.32600
H2950       H  0.45458011  0.01803557  0.52887375     0.43500
H2951       H  0.49665647  0.03347373  0.46257892     0.37000
H2952       H  0.47660305  0.96163547  0.47596301     0.33500
H2953       H  0.40057060  0.01653085  0.53200778     0.25300
H2954       H  0.48872222  0.95382203  0.53412462     0.31200
H2955       H  0.51317547  0.95866162  0.48079699     0.37100
H2956       H  0.41217189  0.05078240  0.47835307     0.31600
H2957       H  0.43444238  0.05448722  0.42816844     0.30500
H2958       H  0.48155905  0.05212263  0.43147243     0.32100
H2959       H  0.50411832  0.00542532  0.42700812     0.31100
H2960       H  0.43697026  0.04925685  0.52854842     0.35100
H2961       H  0.48539741  0.06234727  0.52889337     0.27800
H2962       H  0.41849332  0.94568492  0.45436622     0.32100
H2963       H  0.48640464  0.96762540  0.43289706     0.34900
H2964       H  0.41869891  0.04294415  0.43872144     0.27500
H2965       H  0.50696525  0.05567592  0.52433718     0.40400
H2966       H  0.45128490  0.96095997  0.54300740     0.30500
H2967       H  0.41024159  0.99611531  0.52827244     0.38100
H2968       H  0.52442233  0.00195657  0.43663281     0.29900
H2969       H  0.49912666  0.95375206  0.51418594     0.30000
H2970       H  0.43790690  0.94469630  0.44218301     0.30200
Zr2971     Zr  0.67820268  0.22479526  0.50385754     2.17500
O2972       O  0.65651536  0.21603013  0.52964750    -0.52100
O2973       O  0.67818979  0.18951412  0.50116319    -0.75300
O2974       O  0.64456045  0.22821006  0.49379895    -0.82100
O2975       O  0.71545022  0.23888486  0.54202951    -0.83800
O2976       O  0.64189597  0.24033880  0.46412935    -0.79500
O2977       O  0.68437902  0.22969897  0.53795433    -0.91100
O2978       O  0.69672776  0.17900942  0.47610113    -0.77100
O2979       O  0.68257793  0.21609418  0.47100799    -0.86600
O2980       O  0.71131208  0.21400068  0.50131164    -0.86200
O2981       O  0.67107025  0.25390739  0.48684040    -0.73000
O2982       O  0.69711857  0.25154583  0.51352089    -0.85100
Zr2983     Zr  0.72811766  0.26069913  0.45978096     2.26400
Zr2984     Zr  0.67567906  0.24479163  0.45366080     2.06300
Zr2985     Zr  0.73031861  0.24097514  0.51039702     2.10000
Zr2986     Zr  0.71596614  0.20587910  0.46838620     1.78800
O2987       O  0.74495656  0.26278943  0.53355434    -0.93900
O2988       O  0.70809296  0.18988214  0.43815042    -0.41700
O2989       O  0.73556695  0.23234650  0.47740471    -0.78400
O2990       O  0.70899487  0.23362393  0.45051721    -0.97100
O2991       O  0.69502591  0.27164760  0.46298802    -0.90400
O2992       O  0.72413521  0.26951446  0.49264513    -0.93200
C2993       C  0.68485352  0.17611772  0.48964862     1.00500
C2994       C  0.69866429  0.23466031  0.54858486     1.13500
C2995       C  0.63451724  0.23444896  0.47975521     1.04300
O2996       O  0.66300483  0.22011472  0.43227734    -0.95400
O2997       O  0.68845669  0.25068306  0.42157898    -0.91100
O2998       O  0.72013276  0.25851402  0.42550070    -0.84300
C2999       C  0.70528958  0.25477041  0.41496433     1.10900
O3000       O  0.66578646  0.29017406  0.51895573    -0.97300
Zr3001     Zr  0.69096058  0.27990088  0.49608629     1.88900
O3002       O  0.72789193  0.29614694  0.46282365    -0.74000
O3003       O  0.65599528  0.27037782  0.43958525    -0.53300
O3004       O  0.66498690  0.30058158  0.48375778    -0.97900
O3005       O  0.70389666  0.29402954  0.52543317    -0.55100
O3006       O  0.70680162  0.30776765  0.48552643    -0.74500
C3007       C  0.71991133  0.31004129  0.47299645     0.97800
O3008       O  0.75116998  0.26926054  0.43560403    -0.63300
O3009       O  0.74810207  0.21345528  0.52315934    -0.58100
O3010       O  0.76247231  0.25455250  0.46952693    -0.94800
O3011       O  0.76388073  0.24489740  0.50015166    -0.93200
O3012       O  0.73876972  0.18441124  0.48445874    -0.93600
O3013       O  0.74422677  0.19822885  0.44821606    -0.92400
C3014       C  0.77207461  0.24949969  0.48449912     1.16700
H3015       H  0.71393258  0.20320133  0.50931908     0.32600
H3016       H  0.71186223  0.22869735  0.43776099     0.43500
H3017       H  0.73296955  0.27940262  0.49638311     0.37000
H3018       H  0.65821418  0.25929148  0.48940247     0.33500
H3019       H  0.70966410  0.17597975  0.44046244     0.25300
H3020       H  0.64772439  0.27569947  0.45017372     0.31200
H3021       H  0.66834019  0.30206980  0.47015626     0.37100
H3022       H  0.75133552  0.19088473  0.48421454     0.31600
H3023       H  0.75768930  0.20948856  0.51312468     0.30500
H3024       H  0.74770519  0.27445812  0.52646889     0.32100
H3025       H  0.71690850  0.29854727  0.52200977     0.31100
H3026       H  0.74885942  0.21088529  0.44451172     0.35100
H3027       H  0.75845730  0.27973021  0.44173968     0.27800
H3028       H  0.65145845  0.20338966  0.52581442     0.32100
H3029       H  0.66433366  0.27891949  0.52701843     0.34900
H3030       H  0.75603901  0.21898891  0.53355502     0.27500
H3031       H  0.76050140  0.25815607  0.43447054     0.40400
H3032       H  0.65078537  0.22589568  0.42725818     0.30500
H3033       H  0.69388967  0.19216417  0.43673398     0.38100
H3034       H  0.70660177  0.28305075  0.53377094     0.29900
H3035       H  0.66522526  0.28061260  0.43709729     0.30000
H3036       H  0.64506971  0.22499684  0.52938353     0.30200
Zr3037     Zr  0.76767207  0.97493846  0.74795742     2.17500
O3038       O  0.79254778  0.95932679  0.76742236    -0.52100
O3039       O  0.76679902  0.94012290  0.73931293    -0.75300
O3040       O  0.75753139  0.97330351  0.78184572    -0.82100
O3041       O  0.80496142  0.99424830  0.71119209    -0.83800
O3042       O  0.72634249  0.98469021  0.78619878    -0.79500
O3043       O  0.80213641  0.98168017  0.74064349    -0.91100
O3044       O  0.74148542  0.93438283  0.71956520    -0.77100
O3045       O  0.73403280  0.96881756  0.74330347    -0.86600
O3046       O  0.76360641  0.97110554  0.71437055    -0.86200
O3047       O  0.74979953  0.00314174  0.76040625    -0.73000
O3048       O  0.77632962  0.00474608  0.73433343    -0.85100
Zr3049     Zr  0.71948503  0.02255041  0.70831691     2.26400
Zr3050     Zr  0.71605559  0.99683396  0.75557067     2.06300
Zr3051     Zr  0.77168794  0.00095548  0.70071147     2.10000
Zr3052     Zr  0.73007602  0.96535090  0.70959842     1.78800
O3053       O  0.79112363  0.02706872  0.68974615    -0.93900
O3054       O  0.70003413  0.94952751  0.71701165    -0.41700
O3055       O  0.73792446  0.99498514  0.69575328    -0.78400
O3056       O  0.71153317  0.99236103  0.72192867    -0.97100
O3057       O  0.72422743  0.02667361  0.74187319    -0.90400
O3058       O  0.75321308  0.02878787  0.71253304    -0.93200
C3059       C  0.75584551  0.92873473  0.72963752     1.00500
C3060       C  0.81232575  0.98800052  0.72672432     1.13500
C3061       C  0.74249730  0.97765459  0.79243397     1.04300
O3062       O  0.69353826  0.97284121  0.76556179    -0.95400
O3063       O  0.68284133  0.00639217  0.74700087    -0.91100
O3064       O  0.68469613  0.01987313  0.71785918    -0.84300
C3065       C  0.67495479  0.01373868  0.73219475     1.10900
O3066       O  0.78223532  0.03639642  0.77102011    -0.97300
Zr3067     Zr  0.75801309  0.03240339  0.74605601     1.88900
O3068       O  0.72305226  0.05772329  0.71412836    -0.74000
O3069       O  0.70489697  0.02115799  0.77918039    -0.53300
O3070       O  0.74671377  0.04809796  0.77581983    -0.97900
O3071       O  0.78620461  0.04868833  0.73404877    -0.55100
O3072       O  0.74464784  0.06332239  0.73791589    -0.74500
C3073       C  0.73238901  0.06904167  0.72553680     0.97800
O3074       O  0.69319509  0.03694339  0.68963215    -0.63300
O3075       O  0.78515580  0.97735461  0.67745845    -0.58100
O3076       O  0.72841837  0.01896909  0.67388444    -0.94800
O3077       O  0.76005862  0.00900819  0.66934594    -0.93200
O3078       O  0.74588943  0.94989721  0.68175142    -0.93600
O3079       O  0.70721091  0.96179177  0.68342155    -0.92400
C3080       C  0.74332269  0.01440144  0.66312598     1.16700
H3081       H  0.77178241  0.96066706  0.70927672     0.32600
H3082       H  0.69852907  0.98857662  0.71899936     0.43500
H3083       H  0.75679426  0.04005061  0.70579698     0.37000
H3084       H  0.75250245  0.00584763  0.77363782     0.33500
H3085       H  0.70217548  0.93607359  0.71238159     0.25300
H3086       H  0.69357712  0.01551014  0.78540115     0.31200
H3087       H  0.74606756  0.03780838  0.78520814     0.37100
H3088       H  0.74402343  0.93597450  0.68298448     0.31600
H3089       H  0.79421511  0.98461049  0.66966126     0.30500
H3090       H  0.80307794  0.02073667  0.68430299     0.32100
H3091       H  0.78107257  0.05761070  0.72441502     0.31100
H3092       H  0.70258304  0.97506765  0.68088251     0.35100
H3093       H  0.69617735  0.05066609  0.68881141     0.27800
H3094       H  0.78676514  0.94737502  0.77171729     0.32100
H3095       H  0.78562352  0.05009062  0.77097515     0.34900
H3096       H  0.79371661  0.96858988  0.68477393     0.27500
H3097       H  0.69460901  0.03165518  0.67644248     0.40400
H3098       H  0.70149670  0.96077391  0.76612925     0.30500
H3099       H  0.69991909  0.94881175  0.73108220     0.38100
H3100       H  0.79373181  0.03870279  0.72657578     0.29900
H3101       H  0.71506067  0.02124730  0.78912974     0.30000
H3102       H  0.79350633  0.96749620  0.77913744     0.30200
Zr3103     Zr  0.02304133  0.72483096  0.72607490     2.17500
O3104       O  0.04064093  0.70104718  0.70570472    -0.52100
O3105       O  0.02093663  0.73089122  0.69160237    -0.75300
O3106       O  0.01384834  0.69137441  0.72860288    -0.82100
O3107       O  0.06562973  0.75773369  0.74114834    -0.83800
O3108       O  0.98579074  0.68929666  0.74541277    -0.79500
O3109       O  0.05769608  0.72750489  0.73211158    -0.91100
O3110       O  0.99663443  0.75299130  0.68688626    -0.77100
O3111       O  0.98884628  0.73077728  0.72387580    -0.86600
O3112       O  0.02015686  0.75841089  0.72030559    -0.86200
O3113       O  0.01024930  0.71658895  0.75677705    -0.73000
O3114       O  0.03681996  0.74159408  0.75271168    -0.85100
Zr3115     Zr  0.98617929  0.77311087  0.77487406     2.26400
Zr3116     Zr  0.97590245  0.72280874  0.75448671     2.06300
Zr3117     Zr  0.03407630  0.77501235  0.74722276     2.10000
Zr3118     Zr  0.98595691  0.76450505  0.71845825     1.78800
O3119       O  0.05760496  0.79059625  0.76779367    -0.93900
O3120       O  0.95667836  0.75769229  0.70041204    -0.41700
O3121       O  0.99978575  0.78149311  0.74489064    -0.78400
O3122       O  0.97150036  0.75640979  0.74828384    -0.97100
O3123       O  0.98998478  0.73973555  0.78114626    -0.90400
O3124       O  0.02038874  0.76719257  0.77740911    -0.93200
C3125       C  0.01006459  0.74116920  0.68068878     1.00500
C3126       C  0.07030932  0.74014375  0.73635551     1.13500
C3127       C  0.00063221  0.68162078  0.73637688     1.04300
O3128       O  0.95076280  0.71861405  0.73054999    -0.95400
O3129       O  0.94794421  0.73458674  0.77415701    -0.91100
O3130       O  0.95289629  0.76541483  0.78335795    -0.84300
C3131       C  0.94220218  0.75067961  0.78216074     1.10900
O3132       O  0.05072545  0.70953249  0.78181161    -0.97300
Zr3133     Zr  0.02420722  0.73367133  0.78273214     1.88900
O3134       O  0.99316655  0.77044975  0.80862595    -0.74000
O3135       O  0.96283107  0.69715045  0.77312034    -0.53300
O3136       O  0.01480449  0.70529437  0.79954934    -0.97900
O3137       O  0.05416476  0.74494123  0.79693089    -0.55100
O3138       O  0.01424139  0.74527020  0.81353890    -0.74500
C3139       C  0.00301212  0.75912602  0.81930701     0.97800
O3140       O  0.96496990  0.80130806  0.78179477    -0.63300
O3141       O  0.04623672  0.79211172  0.72007072    -0.58100
O3142       O  0.99693793  0.80622379  0.77539871    -0.94800
O3143       O  0.02332199  0.80814723  0.75594292    -0.93200
O3144       O  0.99719956  0.79343385  0.70401188    -0.93600
O3145       O  0.95967836  0.78878987  0.72073073    -0.92400
C3146       C  0.00978936  0.81579768  0.76675071     1.16700
H3147       H  0.02687256  0.76188566  0.70887585     0.32600
H3148       H  0.95780166  0.75978279  0.74755336     0.43500
H3149       H  0.02582962  0.77485248  0.78760119     0.37000
H3150       H  0.01361521  0.70369527  0.76042950     0.33500
H3151       H  0.95857673  0.76362258  0.68790485     0.25300
H3152       H  0.96116411  0.70252636  0.78627580     0.31200
H3153       H  0.02155309  0.70611920  0.81197586     0.37100
H3154       H  0.99384936  0.79196684  0.69035254     0.31600
H3155       H  0.04939401  0.80494792  0.72536452     0.30500
H3156       H  0.06667262  0.79653509  0.75889635     0.32100
H3157       H  0.05008594  0.75517933  0.80632511     0.31100
H3158       H  0.96393356  0.79805102  0.73072551     0.35100
H3159       H  0.95305353  0.79967834  0.77410808     0.27800
H3160       H  0.03091072  0.69428560  0.69786387     0.32100
H3161       H  0.05377689  0.70690148  0.79528973     0.34900
H3162       H  0.05904180  0.78584930  0.71697419     0.27500
H3163       H  0.96078977  0.80032904  0.79524002     0.40400
H3164       H  0.94569570  0.70576971  0.73285568     0.30500
H3165       H  0.95757760  0.74370260  0.69761413     0.38100
H3166       H  0.06038046  0.75184882  0.78654143     0.29900
H3167       H  0.94943976  0.69552239  0.76833974     0.30000
H3168       H  0.04637325  0.69125673  0.71417001     0.30200
C3169       C  0.22442791  0.14568448  0.01914428    -0.02600
C3170       C  0.21512305  0.15615323  0.00464318     0.07100
C3171       C  0.20397416  0.14626701  0.99093101    -0.02700
C3172       C  0.20138765  0.12639040  0.99228622    -0.02700
C3173       C  0.20876395  0.11634558  0.00798765     0.07200
C3174       C  0.22145979  0.12578527  0.02063572    -0.02900
Br3175     Br  0.23501524  0.11139370  0.03971246    -0.01500
Br3176     Br  0.24087657  0.15870773  0.03717386    -0.01600
Br3177     Br  0.18847860  0.11237978  0.97220327    -0.01500
Br3178     Br  0.19090061  0.16022675  0.97109407    -0.01500
C3179       C  0.20681085  0.02851016  0.13857091    -0.02600
C3180       C  0.19354766  0.01776885  0.12739594     0.07100
C3181       C  0.18494736  0.00178334  0.13590248    -0.02700
C3182       C  0.18793302  0.99822294  0.15554905    -0.02700
C3183       C  0.19962527  0.01029583  0.16681292     0.07200
C3184       C  0.20935428  0.02511610  0.15809692    -0.02900
Br3185     Br  0.22557269  0.04167562  0.17329534    -0.01500
Br3186     Br  0.22281776  0.04746031  0.12738123    -0.01600
Br3187     Br  0.17621357  0.97667832  0.16719153    -0.01500
Br3188     Br  0.16846811  0.98492566  0.12140692    -0.01500
C3189       C  0.10743636  0.99060561  0.00788533    -0.02600
C3190       C  0.11637129  0.98740995  0.02583231     0.07100
C3191       C  0.10537467  0.97813021  0.03972170    -0.02700
C3192       C  0.08502627  0.97654496  0.03747925    -0.02700
C3193       C  0.07564108  0.98398582  0.02132103     0.07200
C3194       C  0.08709581  0.98953966  0.00590976    -0.02900
Br3195     Br  0.07486374  0.99505173  0.98182000    -0.01500
Br3196     Br  0.12281503  0.99449543  0.98532036    -0.01600
Br3197     Br  0.06995927  0.96333225  0.05591413    -0.01500
Br3198     Br  0.11838941  0.96541733  0.06041167    -0.01500
C3199       C  0.09359538  0.08533018  0.98598017    -0.02600
C3200       C  0.11164606  0.09424463  0.98918712     0.07100
C3201       C  0.11345317  0.11329567  0.98324829    -0.02700
C3202       C  0.09662368  0.12386014  0.97825636    -0.02700
C3203       C  0.07850565  0.11692179  0.98363094     0.07200
C3204       C  0.07673021  0.09699503  0.98422306    -0.02900
Br3205     Br  0.05127052  0.08637235  0.98573822    -0.01500
Br3206     Br  0.09102988  0.05786662  0.98486564    -0.01600
Br3207     Br  0.09819833  0.14814213  0.96597027    -0.01500
Br3208     Br  0.13815560  0.12541792  0.98289308    -0.01500
C3209       C  0.12507603  0.24261751  0.00268980    -0.02600
C3210       C  0.14024422  0.22830719  0.00338777     0.07100
C3211       C  0.13679600  0.21170072  0.01363432    -0.02700
C3212       C  0.12007139  0.21057184  0.02491946    -0.02700
C3213       C  0.10397215  0.22356087  0.02291226     0.07200
C3214       C  0.10667844  0.23971241  0.01157731    -0.02900
Br3215     Br  0.08547534  0.25810998  0.00916554    -0.01500
Br3216     Br  0.12948171  0.26612537  0.98995071    -0.01600
Br3217     Br  0.12071838  0.19189822  0.04444949    -0.01500
Br3218     Br  0.15464166  0.18956878  0.01152137    -0.01500
C3219       C  0.97140613  0.08056174  0.02987638    -0.02600
C3220       C  0.97890293  0.06841348  0.01494685     0.07100
C3221       C  0.98704787  0.07692680  0.99881831    -0.02700
C3222       C  0.98947258  0.09692828  0.99859558    -0.02700
C3223       C  0.98479384  0.10864180  0.01476701     0.07200
C3224       C  0.97434485  0.10061671  0.02976517    -0.02900
Br3225     Br  0.96471924  0.11708518  0.05034531    -0.01500
Br3226     Br  0.95790758  0.06956740  0.05076588    -0.01600
Br3227     Br  0.00030963  0.10862677  0.97650444    -0.01500
Br3228     Br  0.99603170  0.06134793  0.97725219    -0.01500
C3229       C  0.01488839  0.23761118  0.15045672    -0.02600
C3230       C  0.01341236  0.22403484  0.16506548     0.07100
C3231       C  0.01883256  0.20469894  0.16068756    -0.02700
C3232       C  0.02481440  0.19900494  0.14207448    -0.02700
C3233       C  0.02367165  0.21204640  0.12677641     0.07200
C3234       C  0.01932348  0.23159654  0.13134623    -0.02900
Br3235     Br  0.01862056  0.25017974  0.11154240    -0.01500
Br3236     Br  0.01191050  0.26469707  0.15669359    -0.01600
Br3237     Br  0.03595378  0.17323559  0.13846189    -0.01500
Br3238     Br  0.01680515  0.18516468  0.17960179    -0.01500
C3239       C  0.01084235  0.06548731  0.09386983    -0.02600
C3240       C  0.00247341  0.07091965  0.11175367     0.07100
C3241       C  0.98839925  0.08612485  0.11233759    -0.02700
C3242       C  0.98844717  0.09975216  0.09809064    -0.02700
C3243       C  0.00171827  0.09720437  0.08271589     0.07200
C3244       C  0.01006523  0.07863561  0.07905836    -0.02900
Br3245     Br  0.02097164  0.07121970  0.05442414    -0.01500
Br3246     Br  0.02359364  0.04075504  0.08926997    -0.01600
Br3247     Br  0.97109171  0.12207748  0.10058100    -0.01500
Br3248     Br  0.96960722  0.08872930  0.13283242    -0.01500
C3249       C  0.10271369  0.99741580  0.11046196    -0.02600
C3250       C  0.11924561  0.00808394  0.11447015     0.07100
C3251       C  0.12530126  0.01086308  0.13345336    -0.02700
C3252       C  0.11498667  0.00270213  0.14830747    -0.02700
C3253       C  0.09706670  0.99418109  0.14440996     0.07200
C3254       C  0.09266486  0.98904570  0.12535995    -0.02900
Br3255     Br  0.06991975  0.97439569  0.12010575    -0.01500
Br3256     Br  0.09058225  0.99923828  0.08590848    -0.01600
Br3257     Br  0.12396417  0.00601725  0.17411686    -0.01500
Br3258     Br  0.14467058  0.02945286  0.13950518    -0.01500
C3259       C  0.09170971  0.00660786  0.26387391    -0.02600
C3260       C  0.08583823  0.02618808  0.26267053     0.07100
C3261       C  0.09832713  0.04012477  0.27009496    -0.02700
C3262       C  0.11806035  0.03505682  0.27340829    -0.02700
C3263       C  0.12482949  0.01588878  0.27035444     0.07200
C3264       C  0.11133758  0.00146346  0.26712107    -0.02900
Br3265     Br  0.12014270  0.97492339  0.26478564    -0.01500
Br3266     Br  0.07313733  0.98695036  0.25899674    -0.01600
Br3267     Br  0.13611964  0.05434518  0.28091825    -0.01500
Br3268     Br  0.08852913  0.06594805  0.27516354    -0.01500
C3269       C  0.98486842  0.00996422  0.10038249    -0.02600
C3270       C  0.99584671  0.99503571  0.09103951     0.07100
C3271       C  0.00595069  0.98132507  0.10198236    -0.02700
C3272       C  0.00625295  0.98339945  0.12199757    -0.02700
C3273       C  0.99727974  0.99964505  0.13125969     0.07200
C3274       C  0.98563110  0.01236024  0.12044524    -0.02900
Br3275     Br  0.97070087  0.03303514  0.13282619    -0.01500
Br3276     Br  0.96849108  0.02682200  0.08556723    -0.01600
Br3277     Br  0.01836220  0.96359976  0.13705671    -0.01500
Br3278     Br  0.01978956  0.95985592  0.08953206    -0.01500
C3279       C  0.97574891  0.14721934  0.22424166    -0.02600
C3280       C  0.98634657  0.15807122  0.23753082     0.07100
C3281       C  0.00000097  0.14868941  0.24935288    -0.02700
C3282       C  0.00480770  0.12899329  0.24621951    -0.02700
C3283       C  0.99642675  0.11883288  0.23066516     0.07200
C3284       C  0.98039650  0.12757058  0.22122963    -0.02900
Br3285     Br  0.96408294  0.11255605  0.20470397    -0.01500
Br3286     Br  0.95606281  0.15953555  0.20882635    -0.01600
Br3287     Br  0.02314622  0.11662995  0.26313250    -0.01500
Br3288     Br  0.01237757  0.16299952  0.26967425    -0.01500
C3289       C  0.08537023  0.14871225  0.22799964    -0.02600
C3290       C  0.10562265  0.14740068  0.23071651     0.07100
C3291       C  0.11384493  0.13088315  0.23905515    -0.02700
C3292       C  0.10311292  0.11409078  0.23938716    -0.02700
C3293       C  0.08334576  0.11456561  0.23400871     0.07200
C3294       C  0.07418768  0.13235717  0.22975213    -0.02900
Br3295     Br  0.04740804  0.13366571  0.22193240    -0.01500
Br3296     Br  0.07344203  0.17254364  0.21991910    -0.01600
Br3297     Br  0.11671934  0.08992250  0.24322591    -0.01500
Br3298     Br  0.14018639  0.13041653  0.24835309    -0.01500
C3299       C  0.21316804  0.14627249  0.10284696    -0.02600
C3300       C  0.19816470  0.16045053  0.10214470     0.07100
C3301       C  0.18906634  0.16386493  0.08438129    -0.02700
C3302       C  0.19043132  0.14950584  0.06997826    -0.02700
C3303       C  0.20007467  0.13193370  0.07406038     0.07200
C3304       C  0.21417480  0.13183254  0.08861777    -0.02900
Br3305     Br  0.23341543  0.11118883  0.09034236    -0.01500
Br3306     Br  0.23143449  0.14589476  0.12364123    -0.01600
Br3307     Br  0.17794128  0.15358207  0.04568967    -0.01500
Br3308     Br  0.17348558  0.18681791  0.07970667    -0.01500
C3309       C  0.12001428  0.24542198  0.10763127    -0.02600
C3310       C  0.11612142  0.24374034  0.12728958     0.07100
C3311       C  0.09878611  0.23505377  0.13262325    -0.02700
C3312       C  0.09009114  0.22240979  0.11973878    -0.02700
C3313       C  0.09521637  0.22219585  0.10038443     0.07200
C3314       C  0.10871779  0.23545552  0.09407598    -0.02900
Br3315     Br  0.11224919  0.23963036  0.06740559    -0.01500
Br3316     Br  0.14109842  0.26080141  0.09955165    -0.01600
Br3317     Br  0.07225137  0.20442409  0.12910435    -0.01500
Br3318     Br  0.08719269  0.23925288  0.15758285    -0.01500
C3319       C  0.21400956  0.24608501  0.10861225    -0.02600
C3320       C  0.22010417  0.22998239  0.11896403     0.07100
C3321       C  0.23382626  0.21671782  0.11058862    -0.02700
C3322       C  0.23925419  0.21813785  0.09118936    -0.02700
C3323       C  0.23170831  0.23340308  0.08038135     0.07200
C3324       C  0.21971752  0.24776779  0.08945085    -0.02900
Br3325     Br  0.20972398  0.26905075  0.07515375    -0.01500
Br3326     Br  0.19653006  0.26513956  0.12051183    -0.01600
Br3327     Br  0.25508200  0.19805008  0.07882439    -0.01500
Br3328     Br  0.24412121  0.19594859  0.12535835    -0.01500
C3329       C  0.17780262  0.08423212  0.21838920    -0.02600
C3330       C  0.19016249  0.08092407  0.23433392     0.07100
C3331       C  0.19838830  0.09724628  0.24370299    -0.02700
C3332       C  0.19482449  0.11597596  0.23689929    -0.02700
C3333       C  0.18295672  0.11886752  0.22091766     0.07200
C3334       C  0.17397552  0.10301052  0.21216605    -0.02900
Br3335     Br  0.15571144  0.10705029  0.19159538    -0.01500
Br3336     Br  0.16679768  0.06353252  0.20328806    -0.01600
Br3337     Br  0.20687051  0.13780271  0.24894197    -0.01500
Br3338     Br  0.21476621  0.09489194  0.26592663    -0.01500
C3339       C  0.07878181  0.22132517  0.25884984    -0.02600
C3340       C  0.07189698  0.23985824  0.25347564     0.07100
C3341       C  0.08585838  0.25338847  0.24880725    -0.02700
C3342       C  0.10539499  0.24721201  0.24563741    -0.02700
C3343       C  0.11093533  0.22748609  0.24609343     0.07200
C3344       C  0.09826496  0.21514644  0.25510536    -0.02900
Br3345     Br  0.10742118  0.18999261  0.26229921    -0.01500
Br3346     Br  0.06173081  0.20433471  0.27155439    -0.01600
Br3347     Br  0.12474385  0.26561694  0.23990438    -0.01500
Br3348     Br  0.07856928  0.27999574  0.24520323    -0.01500
C3349       C  0.85577557  0.45253071  0.21305945    -0.02600
C3350       C  0.86590078  0.46602566  0.22426615     0.07100
C3351       C  0.85756459  0.48476593  0.22672265    -0.02700
C3352       C  0.83756121  0.48788441  0.22392408    -0.02700
C3353       C  0.82641087  0.47276964  0.21689418     0.07200
C3354       C  0.83573481  0.45574106  0.20974358    -0.02900
Br3355     Br  0.82087105  0.43658722  0.19656945    -0.01500
Br3356     Br  0.86907317  0.42982337  0.20261903    -0.01600
Br3357     Br  0.82505038  0.51212176  0.23158243    -0.01500
Br3358     Br  0.87317019  0.50559351  0.23578075    -0.01500
C3359       C  0.97743447  0.36812460  0.25101980    -0.02600
C3360       C  0.95836488  0.37280004  0.24489248     0.07100
C3361       C  0.94784556  0.35878098  0.23497833    -0.02700
C3362       C  0.95458371  0.33947186  0.23486539    -0.02700
C3363       C  0.97209039  0.33426129  0.24430559     0.07200
C3364       C  0.98432581  0.34889487  0.25078760    -0.02900
Br3365     Br  0.00962950  0.34286284  0.26126356    -0.01500
Br3366     Br  0.99332957  0.38803112  0.26159848    -0.01600
Br3367     Br  0.93946147  0.32028537  0.22206368    -0.01500
Br3368     Br  0.92336753  0.36564762  0.22320598    -0.01500
C3369       C  0.95523363  0.50163760  0.36165533    -0.02600
C3370       C  0.96242906  0.48423710  0.35323295     0.07100
C3371       C  0.97538616  0.47249117  0.36356574    -0.02700
C3372       C  0.97885995  0.47665215  0.38302802    -0.02700
C3373       C  0.96935122  0.49265309  0.39224471     0.07200
C3374       C  0.95863961  0.50588894  0.38114432    -0.02900
Br3375     Br  0.94696022  0.52889478  0.39285468    -0.01500
Br3376     Br  0.93946673  0.51880000  0.34663652    -0.01600
Br3377     Br  0.99648985  0.46032328  0.39703520    -0.01500
Br3378     Br  0.98694685  0.44976396  0.35120417    -0.01500
C3379       C  0.94273270  0.38694365  0.39827994    -0.02600
C3380       C  0.93444010  0.36891647  0.39574524     0.07100
C3381       C  0.92870656  0.36227156  0.37756230    -0.02700
C3382       C  0.93193876  0.37328598  0.36169503    -0.02700
C3383       C  0.93971012  0.39166753  0.36418956     0.07200
C3384       C  0.94539035  0.39838728  0.38240433    -0.02900
Br3385     Br  0.95627023  0.42336860  0.38558335    -0.01500
Br3386     Br  0.94876602  0.39649463  0.42357612    -0.01600
Br3387     Br  0.92337084  0.36367504  0.33701908    -0.01500
Br3388     Br  0.91355343  0.33945089  0.37461429    -0.01500
C3389       C  0.80490302  0.25743010  0.49884787    -0.02600
C3390       C  0.79404235  0.24905650  0.48378080     0.07100
C3391       C  0.80447892  0.24045909  0.46804915    -0.02700
C3392       C  0.82492501  0.24216155  0.46650270    -0.02700
C3393       C  0.83522829  0.25263000  0.48039347     0.07200
C3394       C  0.82532869  0.25866920  0.49731219    -0.02900
Br3395     Br  0.83993109  0.27078979  0.51754923    -0.01500
Br3396     Br  0.79198070  0.26975306  0.52062902    -0.01600
Br3397     Br  0.83887262  0.23129255  0.44473018    -0.01500
Br3398     Br  0.79096525  0.22659921  0.44826473    -0.01500
C3399       C  0.94785891  0.26239461  0.34810449    -0.02600
C3400       C  0.95648483  0.27521944  0.33561386     0.07100
C3401       C  0.96115143  0.29363434  0.34292957    -0.02700
C3402       C  0.95621281  0.29947467  0.36202309    -0.02700
C3403       C  0.94644944  0.28700696  0.37409569     0.07200
C3404       C  0.94345555  0.26804591  0.36723027    -0.02900
Br3405     Br  0.93421016  0.24933644  0.38455529    -0.01500
Br3406     Br  0.94062314  0.23736474  0.33868022    -0.01600
Br3407     Br  0.96324182  0.32439287  0.37165399    -0.01500
Br3408     Br  0.97468833  0.31075283  0.32683460    -0.01500
C3409       C  0.93229074  0.38525796  0.48332615    -0.02600
C3410       C  0.94721393  0.37133331  0.47784124     0.07100
C3411       C  0.96608708  0.37774792  0.47440295    -0.02700
C3412       C  0.96991315  0.39754507  0.47608214    -0.02700
C3413       C  0.95512459  0.41102433  0.48191391     0.07200
C3414       C  0.93648659  0.40478079  0.48592564    -0.02900
Br3415     Br  0.91653002  0.42340547  0.49447623    -0.01500
Br3416     Br  0.90523035  0.37889514  0.48513182    -0.01600
Br3417     Br  0.99523001  0.40640879  0.46955701    -0.01500
Br3418     Br  0.98671940  0.35948903  0.46750380    -0.01500
C3419       C  0.79838203  0.26075055  0.39365001    -0.02600
C3420       C  0.80749467  0.25349720  0.37666337     0.07100
C3421       C  0.82605790  0.24466414  0.37819634    -0.02700
C3422       C  0.83734712  0.24900185  0.39431286    -0.02700
C3423       C  0.83018812  0.26277089  0.40818676     0.07200
C3424       C  0.80992418  0.26636137  0.40923742    -0.02900
Br3425     Br  0.79809328  0.28002367  0.43077252    -0.01500
Br3426     Br  0.77044752  0.26412771  0.39477444    -0.01600
Br3427     Br  0.86263336  0.23653813  0.39689836    -0.01500
Br3428     Br  0.83620883  0.22728828  0.35838296    -0.01500
C3429       C  0.86910747  0.33519999  0.26304812    -0.02600
C3430       C  0.85012937  0.33630646  0.25557485     0.07100
C3431       C  0.84598782  0.34979385  0.24136496    -0.02700
C3432       C  0.85860826  0.36513195  0.23880614    -0.02700
C3433       C  0.87605479  0.36593663  0.24919096     0.07200
C3434       C  0.88227031  0.34964096  0.25928227    -0.02900
Br3435     Br  0.90762746  0.34910457  0.27097985    -0.01500
Br3436     Br  0.87659221  0.31454675  0.27946262    -0.01600
Br3437     Br  0.85102305  0.38618863  0.22309762    -0.01500
Br3438     Br  0.82292589  0.34787385  0.22611800    -0.01500
C3439       C  0.70519493  0.26823530  0.36257174    -0.02600
C3440       C  0.72070703  0.25637934  0.35535177     0.07100
C3441       C  0.72790830  0.24132538  0.36652170    -0.02700
C3442       C  0.72212243  0.24019021  0.38577881    -0.02700
C3443       C  0.70848537  0.25379319  0.39385689     0.07200
C3444       C  0.69899336  0.26691456  0.38175159    -0.02900
Br3445     Br  0.67880932  0.28420957  0.39182534    -0.01500
Br3446     Br  0.69374112  0.28733068  0.34638436    -0.01600
Br3447     Br  0.73359451  0.22040851  0.40121132    -0.01500
Br3448     Br  0.74704739  0.22333562  0.35558983    -0.01500
C3449       C  0.76287176  0.36536444  0.23220949    -0.02600
C3450       C  0.77779785  0.36169821  0.24528329     0.07100
C3451       C  0.78908152  0.37701005  0.25191164    -0.02700
C3452       C  0.78492654  0.39591272  0.24620157    -0.02700
C3453       C  0.76782639  0.40022724  0.23567228     0.07200
C3454       C  0.75756368  0.38443957  0.22757309    -0.02900
Br3455     Br  0.73562146  0.38782258  0.21069520    -0.01500
Br3456     Br  0.74853310  0.34394216  0.22223644    -0.01600
Br3457     Br  0.80365172  0.41528727  0.25213663    -0.01500
Br3458     Br  0.80935724  0.37248074  0.27022837    -0.01500
C3459       C  0.85922666  0.23714878  0.26325486    -0.02600
C3460       C  0.85045679  0.25410722  0.25607910     0.07100
C3461       C  0.86198851  0.26595703  0.24490666    -0.02700
C3462       C  0.88240916  0.26322877  0.24471136    -0.02700
C3463       C  0.89135153  0.24825490  0.25504504     0.07200
C3464       C  0.87960549  0.23450985  0.26328174    -0.02900
Br3465     Br  0.89122813  0.21303341  0.27636348    -0.01500
Br3466     Br  0.84324229  0.21745772  0.27315851    -0.01600
Br3467     Br  0.89809180  0.28009790  0.23019082    -0.01500
Br3468     Br  0.85033460  0.28583998  0.22966178    -0.01500
C3469       C  0.85900601  0.48238882  0.38071113    -0.02600
C3470       C  0.83900810  0.48068819  0.37701076     0.07100
C3471       C  0.83120894  0.48789832  0.35991991    -0.02700
C3472       C  0.84389513  0.49246971  0.34506292    -0.02700
C3473       C  0.86408657  0.49075176  0.34802422     0.07200
C3474       C  0.87089671  0.49007216  0.36690124    -0.02900
Br3475     Br  0.89777367  0.49511135  0.37232092    -0.01500
Br3476     Br  0.87095353  0.47164626  0.40298970    -0.01600
Br3477     Br  0.83371040  0.49930344  0.32051562    -0.01500
Br3478     Br  0.80365985  0.48930017  0.35572185    -0.01500
C3479       C  0.81297269  0.36814554  0.50527743    -0.02600
C3480       C  0.82316073  0.38449767  0.50041635     0.07100
C3481       C  0.84265068  0.38562112  0.50619629    -0.02700
C3482       C  0.85240390  0.36876207  0.51193836    -0.02700
C3483       C  0.84381921  0.35094340  0.50800089     0.07200
C3484       C  0.82342267  0.35076714  0.50768662    -0.02900
Br3485     Br  0.81032713  0.32693327  0.50913802    -0.01500
Br3486     Br  0.78529808  0.37012429  0.50884872    -0.01600
Br3487     Br  0.87672987  0.37007936  0.52521543    -0.01500
Br3488     Br  0.85642896  0.40912095  0.50480176    -0.01500
C3489       C  0.77235695  0.35791215  0.37798586    -0.02600
C3490       C  0.76115077  0.35656516  0.39463430     0.07100
C3491       C  0.74287538  0.34816079  0.39366306    -0.02700
C3492       C  0.73598353  0.34136895  0.37588938    -0.02700
C3493       C  0.74620678  0.34542703  0.35905280     0.07200
C3494       C  0.76336671  0.35581732  0.36038134    -0.02900
Br3495     Br  0.77281616  0.37056872  0.33952110    -0.01500
Br3496     Br  0.79843067  0.36738337  0.37935435    -0.01600
Br3497     Br  0.71147462  0.32896604  0.37424945    -0.01500
Br3498     Br  0.72717439  0.34710502  0.41634301    -0.01500
C3499       C  0.75486176  0.35053934  0.46870561    -0.02600
C3500       C  0.74244533  0.36756622  0.46903966     0.07100
C3501       C  0.72208411  0.36500246  0.47030014    -0.02700
C3502       C  0.71459160  0.34626549  0.47069521    -0.02700
C3503       C  0.72724380  0.32980998  0.47116384     0.07200
C3504       C  0.74735817  0.33229049  0.47122445    -0.02900
Br3505     Br  0.76501054  0.31070886  0.47655965    -0.01500
Br3506     Br  0.78234058  0.35015709  0.46310919    -0.01600
Br3507     Br  0.68681246  0.34324522  0.47012601    -0.01500
Br3508     Br  0.70396595  0.38676649  0.47177536    -0.01500
C3509       C  0.74751905  0.48113549  0.35007327    -0.02600
C3510       C  0.76159753  0.46707427  0.35522085     0.07100
C3511       C  0.76959252  0.45460631  0.34062860    -0.02700
C3512       C  0.76278644  0.45524918  0.32173892    -0.02700
C3513       C  0.74939733  0.46984733  0.31623500     0.07200
C3514       C  0.74204812  0.48307776  0.33061517    -0.02900
Br3515     Br  0.72494409  0.50428245  0.32397390    -0.01500
Br3516     Br  0.73493692  0.49684841  0.36985124    -0.01600
Br3517     Br  0.77058632  0.43456736  0.30395820    -0.01500
Br3518     Br  0.79031075  0.43624910  0.34628662    -0.01500
C3519       C  0.85845082  0.49914857  0.44260000    -0.02600
C3520       C  0.84681738  0.48977562  0.45604272     0.07100
C3521       C  0.85585354  0.48550137  0.47380489    -0.02700
C3522       C  0.87626771  0.48590082  0.47600312    -0.02700
C3523       C  0.88819870  0.49291569  0.46163622     0.07200
C3524       C  0.87899199  0.50059143  0.44535010    -0.02900
Br3525     Br  0.89449805  0.51383802  0.42733558    -0.01500
Br3526     Br  0.84598870  0.51266410  0.42210957    -0.01600
Br3527     Br  0.88809449  0.47629305  0.49896379    -0.01500
Br3528     Br  0.84075652  0.48190624  0.49665390    -0.01500
C3529       C  0.73804455  0.74366451  0.09556913    -0.02600
C3530       C  0.74358660  0.72818456  0.08290084     0.07100
C3531       C  0.74840858  0.71023875  0.09077240    -0.02700
C3532       C  0.74533623  0.70735208  0.11045262    -0.02700
C3533       C  0.73642409  0.72184527  0.12224361     0.07200
C3534       C  0.73440476  0.74043706  0.11510635    -0.02900
Br3535     Br  0.72585324  0.76119968  0.13216485    -0.01500
Br3536     Br  0.73391895  0.76911209  0.08598111    -0.01600
Br3537     Br  0.75369543  0.68380168  0.12192592    -0.01500
Br3538     Br  0.75956170  0.68977115  0.07478497    -0.01500
C3539       C  0.68020145  0.59974654  0.22138237    -0.02600
C3540       C  0.69278994  0.61494626  0.22525497     0.07100
C3541       C  0.71197293  0.61060050  0.23102649    -0.02700
C3542       C  0.71882649  0.59133126  0.23199566    -0.02700
C3543       C  0.70615160  0.57597213  0.22812431     0.07200
C3544       C  0.68647472  0.58050794  0.22384185    -0.02900
Br3545     Br  0.66770625  0.56064021  0.22144644    -0.01500
Br3546     Br  0.65543894  0.60492767  0.20935390    -0.01600
Br3547     Br  0.74628632  0.58668121  0.23646912    -0.01500
Br3548     Br  0.72966982  0.63133498  0.23486066    -0.01500
C3549       C  0.59941729  0.73586642  0.22672229    -0.02600
C3550       C  0.60922112  0.71882068  0.23273940     0.07100
C3551       C  0.59855434  0.70630531  0.24408754    -0.02700
C3552       C  0.57803510  0.70902507  0.24610114    -0.02700
C3553       C  0.56810086  0.72412436  0.23677831     0.07200
C3554       C  0.57902631  0.73781068  0.22759533    -0.02900
Br3555     Br  0.56588954  0.75890200  0.21513960    -0.01500
Br3556     Br  0.61379509  0.75747708  0.21830631    -0.01600
Br3557     Br  0.56340374  0.69203569  0.26137492    -0.01500
Br3558     Br  0.61177883  0.68643973  0.25804169    -0.01500
C3559       C  0.63455823  0.75998417  0.11917668    -0.02600
C3560       C  0.65326650  0.75145082  0.11956693     0.07100
C3561       C  0.66088902  0.74527029  0.10174960    -0.02700
C3562       C  0.64834001  0.73484910  0.09013094    -0.02700
C3563       C  0.62822780  0.73969053  0.09101309     0.07200
C3564       C  0.62209201  0.75489674  0.10401719    -0.02900
Br3565     Br  0.59715380  0.76812348  0.10200490    -0.01500
Br3566     Br  0.62641883  0.77768313  0.13936080    -0.01600
Br3567     Br  0.65818585  0.71028043  0.08083251    -0.01500
Br3568     Br  0.68850510  0.74187415  0.09869234    -0.01500
C3569       C  0.63278963  0.74754804  0.99881410    -0.02600
C3570       C  0.62865050  0.73523257  0.01396621     0.07100
C3571       C  0.64445325  0.73002798  0.02597087    -0.02700
C3572       C  0.66192439  0.73942047  0.02536054    -0.02700
C3573       C  0.66727508  0.74822571  0.00868761     0.07200
C3574       C  0.65241995  0.75299831  0.99545157    -0.02900
Br3575     Br  0.65905296  0.76592739  0.97261477    -0.01500
Br3576     Br  0.61257338  0.75415928  0.98108878    -0.01600
Br3577     Br  0.67972980  0.73816014  0.04662422    -0.01500
Br3578     Br  0.64747428  0.70511854  0.03622811    -0.01500
C3579       C  0.49041810  0.71669538  0.14590791    -0.02600
C3580       C  0.49707692  0.73389833  0.15465423     0.07100
C3581       C  0.50523420  0.74753702  0.14270617    -0.02700
C3582       C  0.50958086  0.74269927  0.12335942    -0.02700
C3583       C  0.50595060  0.72417549  0.11553999     0.07200
C3584       C  0.49448096  0.71205920  0.12638995    -0.02900
Br3585     Br  0.48406597  0.68926901  0.11466225    -0.01500
Br3586     Br  0.47496250  0.69966496  0.16038085    -0.01600
Br3587     Br  0.52032436  0.76173845  0.10726649    -0.01500
Br3588     Br  0.51146846  0.77264732  0.15274636    -0.01500
C3589       C  0.49738628  0.61667463  0.02111572    -0.02600
C3590       C  0.51391995  0.62098991  0.03199089     0.07100
C3591       C  0.52622156  0.60575470  0.03797703    -0.02700
C3592       C  0.52284651  0.58664050  0.03237836    -0.02700
C3593       C  0.50592988  0.58205094  0.02208626     0.07200
C3594       C  0.49305159  0.59727260  0.01663354    -0.02900
Br3595     Br  0.46946581  0.59181180  0.00310161    -0.01500
Br3596     Br  0.48127258  0.63746836  0.01184358    -0.01600
Br3597     Br  0.54306676  0.56726445  0.03673116    -0.01500
Br3598     Br  0.54842015  0.61111795  0.05352294    -0.01500
C3599       C  0.63308946  0.62307246  0.98064511    -0.02600
C3600       C  0.65140272  0.62629948  0.98895058     0.07100
C3601       C  0.65726964  0.64551405  0.99071579    -0.02700
C3602       C  0.64290072  0.66028046  0.99113025    -0.02700
C3603       C  0.62328591  0.65539581  0.99101771     0.07200
C3604       C  0.61864196  0.63775633  0.98201303    -0.02900
Br3605     Br  0.59287800  0.63318869  0.97249059    -0.01500
Br3606     Br  0.62761537  0.59888705  0.96808793    -0.01600
Br3607     Br  0.64948744  0.68678677  0.99080495    -0.01500
Br3608     Br  0.68427472  0.65164342  0.99314587    -0.01500
C3609       C  0.72101535  0.65718609  0.09089679    -0.02600
C3610       C  0.72316128  0.64969079  0.10957079     0.07100
C3611       C  0.73758262  0.63489731  0.11218590    -0.02700
C3612       C  0.74534755  0.62484366  0.09613240    -0.02700
C3613       C  0.73719245  0.62823723  0.07826646     0.07200
C3614       C  0.72885853  0.64657235  0.07525202    -0.02900
Br3615     Br  0.72535972  0.65552962  0.04959189    -0.01500
Br3616     Br  0.70706701  0.68107531  0.08543051    -0.01600
Br3617     Br  0.76533570  0.60499846  0.09822792    -0.01500
Br3618     Br  0.74713336  0.62801275  0.13699260    -0.01500
C3619       C  0.73918649  0.62747786  0.98672975    -0.02600
C3620       C  0.74504049  0.61563205  0.00168751     0.07100
C3621       C  0.75799445  0.62284546  0.01548930    -0.02700
C3622       C  0.76226592  0.64253401  0.01618724    -0.02700
C3623       C  0.75348983  0.65504356  0.00306156     0.07200
C3624       C  0.74304574  0.64719447  0.98754811    -0.02900
Br3625     Br  0.73337235  0.66339518  0.96766684    -0.01500
Br3626     Br  0.72395082  0.61677528  0.96627907    -0.01600
Br3627     Br  0.77853631  0.65264064  0.03615464    -0.01500
Br3628     Br  0.76776642  0.60608550  0.03485287    -0.01500
C3629       C  0.73714234  0.50925294  0.11148511    -0.02600
C3630       C  0.71851424  0.50605905  0.10396715     0.07100
C3631       C  0.70564467  0.49520187  0.11467048    -0.02700
C3632       C  0.70927661  0.49238790  0.13428184    -0.02700
C3633       C  0.72623509  0.49961397  0.14287031     0.07200
C3634       C  0.74088911  0.50660418  0.13091887    -0.02900
Br3635     Br  0.76572103  0.51430032  0.14084322    -0.01500
Br3636     Br  0.75769490  0.51706647  0.09490542    -0.01600
Br3637     Br  0.69122442  0.47836707  0.14916913    -0.01500
Br3638     Br  0.68344723  0.48385509  0.10260646    -0.01500
C3639       C  0.58862020  0.49808080  0.03513944    -0.02600
C3640       C  0.57729008  0.50609924  0.02049280     0.07100
C3641       C  0.58645917  0.51523518  0.00550873    -0.02700
C3642       C  0.60671803  0.51683412  0.00536265    -0.02700
C3643       C  0.61801097  0.51117890  0.02129012     0.07200
C3644       C  0.60901087  0.50033074  0.03545353    -0.02900
Br3645     Br  0.62425973  0.48753881  0.05466405    -0.01500
Br3646     Br  0.57603004  0.48424507  0.05480956    -0.01600
Br3647     Br  0.61887368  0.52581207  0.98250385    -0.01500
Br3648     Br  0.57099407  0.52667198  0.98555885    -0.01500
C3649       C  0.50038728  0.61582256  0.12276164    -0.02600
C3650       C  0.50663999  0.61998051  0.14157809     0.07100
C3651       C  0.51193460  0.63900419  0.14630312    -0.02700
C3652       C  0.51707899  0.65115134  0.13167314    -0.02700
C3653       C  0.51479689  0.64507862  0.11253004     0.07200
C3654       C  0.50486253  0.62827716  0.10811851    -0.02900
Br3655     Br  0.49941412  0.62135000  0.08193707    -0.01500
Br3656     Br  0.48570442  0.59331239  0.11699147    -0.01600
Br3657     Br  0.52894396  0.67527067  0.13783959    -0.01500
Br3658     Br  0.51235277  0.64874794  0.17240596    -0.01500
C3659       C  0.61486496  0.51976182  0.10171325    -0.02600
C3660       C  0.63493415  0.52171452  0.10482395     0.07100
C3661       C  0.64274886  0.51824769  0.12300016    -0.02700
C3662       C  0.63056120  0.51262564  0.13785224    -0.02700
C3663       C  0.61027149  0.51227453  0.13516943     0.07200
C3664       C  0.60265791  0.51451266  0.11669488    -0.02900
Br3665     Br  0.57487774  0.51468391  0.11285338    -0.01500
Br3666     Br  0.60341119  0.52861669  0.07832787    -0.01600
Br3667     Br  0.64085262  0.50909776  0.16309880    -0.01500
Br3668     Br  0.66878510  0.52586473  0.12889543    -0.01500
C3669       C  0.57425747  0.64159652  0.23103016    -0.02600
C3670       C  0.58013484  0.62369110  0.23841105     0.07100
C3671       C  0.59903077  0.62185850  0.24593287    -0.02700
C3672       C  0.61324601  0.63457276  0.24019097    -0.02700
C3673       C  0.60829260  0.64861864  0.22664506     0.07200
C3674       C  0.58843322  0.65324501  0.22353601    -0.02900
Br3675     Br  0.58041862  0.67481281  0.20848476    -0.01500
Br3676     Br  0.54693545  0.64874008  0.22876473    -0.01600
Br3677     Br  0.63924840  0.63163846  0.25014546    -0.01500
Br3678     Br  0.60558244  0.60153359  0.26310485    -0.01500
C3679       C  0.61998309  0.48676636  0.21485267    -0.02600
C3680       C  0.60780462  0.49854263  0.22688525     0.07100
C3681       C  0.61468107  0.50354159  0.24534148    -0.02700
C3682       C  0.63471964  0.50206648  0.24936190    -0.02700
C3683       C  0.64759674  0.49382501  0.23554106     0.07200
C3684       C  0.63989297  0.48449760  0.21918875    -0.02900
Br3685     Br  0.65674777  0.46903019  0.20234130    -0.01500
Br3686     Br  0.60999657  0.47411723  0.19224379    -0.01600
Br3687     Br  0.64449178  0.51334697  0.27269992    -0.01500
Br3688     Br  0.59660906  0.51289587  0.26487520    -0.01500
C3689       C  0.47922073  0.62436843  0.22699281    -0.02600
C3690       C  0.49384764  0.61380613  0.23647488     0.07100
C3691       C  0.50363070  0.62266891  0.25185034    -0.02700
C3692       C  0.50064771  0.64251858  0.25599038    -0.02700
C3693       C  0.48813438  0.65366041  0.24445249     0.07200
C3694       C  0.47654236  0.64427215  0.23073302    -0.02900
Br3695     Br  0.45749196  0.65877125  0.21651033    -0.01500
Br3696     Br  0.46464614  0.61173068  0.20714518    -0.01600
Br3697     Br  0.51534928  0.65470487  0.27605173    -0.01500
Br3698     Br  0.52321088  0.60806222  0.26534550    -0.01500
C3699       C  0.53218179  0.48005810  0.11964190    -0.02600
C3700       C  0.52001357  0.49290217  0.13062236     0.07100
C3701       C  0.50068022  0.49624086  0.12450040    -0.02700
C3702       C  0.49552169  0.49165955  0.10561237    -0.02700
C3703       C  0.50929888  0.48257348  0.09323055     0.07200
C3704       C  0.52664578  0.47475761  0.10084712    -0.02900
Br3705     Br  0.54254591  0.45708152  0.08546726    -0.01500
Br3706     Br  0.55629554  0.47012452  0.12987956    -0.01600
Br3707     Br  0.46985896  0.49841841  0.09648432    -0.01500
Br3708     Br  0.48152729  0.50773383  0.14189641    -0.01500
C3709       C  0.02678660  0.63265462  0.74002453    -0.02600
C3710       C  0.01482918  0.62117724  0.72860612     0.07100
C3711       C  0.99559788  0.62816305  0.72519747    -0.02700
C3712       C  0.99024883  0.64766924  0.72896541    -0.02700
C3713       C  0.00418222  0.66034136  0.73608771     0.07200
C3714       C  0.02216985  0.65245708  0.74267117    -0.02900
Br3715     Br  0.04074161  0.66854112  0.75529927    -0.01500
Br3716     Br  0.04750131  0.62071349  0.75426368    -0.01600
Br3717     Br  0.96434487  0.65709464  0.72319116    -0.01500
Br3718     Br  0.97633988  0.61060484  0.71634429    -0.01500
C3719       C  0.14724745  0.53779624  0.74086751    -0.02600
C3720       C  0.15503622  0.51913700  0.73586038     0.07100
C3721       C  0.14182418  0.50516848  0.72949938    -0.02700
C3722       C  0.12221386  0.51046646  0.72569253    -0.02700
C3723       C  0.11538182  0.52978400  0.72760739     0.07200
C3724       C  0.12743811  0.54287582  0.73721130    -0.02900
Br3725     Br  0.11674102  0.56743178  0.74608889    -0.01500
Br3726     Br  0.16341846  0.55657313  0.75309780    -0.01600
Br3727     Br  0.10421437  0.49096498  0.71848063    -0.01500
Br3728     Br  0.15031082  0.47886714  0.72435071    -0.01500
C3729       C  0.01487340  0.49157393  0.60008091    -0.02600
C3730       C  0.00449863  0.50703243  0.60943044     0.07100
C3731       C  0.98911066  0.51597154  0.59941003    -0.02700
C3732       C  0.98618931  0.51179483  0.57966956    -0.02700
C3733       C  0.99810626  0.49786708  0.56964345     0.07200
C3734       C  0.01162679  0.48691489  0.58040920    -0.02900
Br3735     Br  0.02679520  0.46649107  0.56785421    -0.01500
Br3736     Br  0.03430018  0.47751270  0.61424018    -0.01600
Br3737     Br  0.96605886  0.52564316  0.56626730    -0.01500
Br3738     Br  0.97258484  0.53466670  0.61302426    -0.01500
C3739       C  0.98437551  0.59865489  0.57637743    -0.02600
C3740       C  0.97978248  0.61791419  0.58169037     0.07100
C3741       C  0.97303722  0.62151561  0.60033069    -0.02700
C3742       C  0.97945973  0.60920370  0.61468678    -0.02700
C3743       C  0.99206553  0.59314351  0.60959757     0.07200
C3744       C  0.99200245  0.58647554  0.59026485    -0.02900
Br3745     Br  0.00290404  0.56170706  0.58204679    -0.01500
Br3746     Br  0.98410619  0.59057136  0.54983853    -0.01600
Br3747     Br  0.97096031  0.61520307  0.64052625    -0.01500
Br3748     Br  0.95701354  0.64419431  0.60600358    -0.01500
C3749       C  0.03276491  0.74086639  0.63046048    -0.02600
C3750       C  0.01821906  0.73184170  0.61947750     0.07100
C3751       C  0.99985179  0.72970992  0.62827594    -0.02700
C3752       C  0.99742867  0.73235774  0.64816116    -0.02700
C3753       C  0.01276221  0.73900248  0.65953337     0.07200
C3754       C  0.03002829  0.74440038  0.65040432    -0.02900
Br3755     Br  0.04956229  0.75726933  0.66518840    -0.01500
Br3756     Br  0.05573401  0.74967949  0.61834158    -0.01600
Br3757     Br  0.97334381  0.72547687  0.65993236    -0.01500
Br3758     Br  0.97735759  0.72445894  0.61287048    -0.01500
C3759       C  0.11876415  0.72524763  0.51372107    -0.02600
C3760       C  0.11448929  0.71943036  0.53224707     0.07100
C3761       C  0.12973276  0.71680114  0.54540174    -0.02700
C3762       C  0.14868162  0.72207241  0.54084332    -0.02700
C3763       C  0.15328558  0.72713014  0.52199268     0.07200
C3764       C  0.13813054  0.72834703  0.50833106    -0.02900
Br3765     Br  0.14361879  0.73197986  0.48166849    -0.01500
Br3766     Br  0.09809308  0.72681448  0.49515212    -0.01600
Br3767     Br  0.16788299  0.72263066  0.56093118    -0.01500
Br3768     Br  0.12569284  0.70278969  0.56832752    -0.01500
C3769       C  0.01265846  0.61257990  0.47994835    -0.02600
C3770       C  0.99885861  0.62150012  0.49258585     0.07100
C3771       C  0.98265232  0.61114094  0.49811700    -0.02700
C3772       C  0.98153787  0.59150208  0.49307713    -0.02700
C3773       C  0.99688239  0.58193713  0.48289226     0.07200
C3774       C  0.01191514  0.59273472  0.47539653    -0.02900
Br3775     Br  0.03260065  0.57993125  0.46078455    -0.01500
Br3776     Br  0.03388346  0.62715669  0.47083238    -0.01600
Br3777     Br  0.95924657  0.57755849  0.50060349    -0.01500
Br3778     Br  0.96322138  0.62352732  0.51461027    -0.01500
C3779       C  0.09920761  0.58820314  0.48541094    -0.02600
C3780       C  0.09628147  0.57216083  0.49671095     0.07100
C3781       C  0.07745060  0.56979461  0.50409916    -0.02700
C3782       C  0.06482653  0.58590030  0.50616771    -0.02700
C3783       C  0.07180225  0.60416347  0.50165328     0.07200
C3784       C  0.08738777  0.60479141  0.48855854    -0.02900
Br3785     Br  0.09301565  0.62789690  0.47540510    -0.01500
Br3786     Br  0.12025641  0.58780393  0.46718622    -0.01600
Br3787     Br  0.03891682  0.58247528  0.51622156    -0.01500
Br3788     Br  0.06940570  0.54558821  0.51347092    -0.01500
C3789       C  0.09100951  0.48948233  0.57735799    -0.02600
C3790       C  0.11046155  0.48642419  0.58276692     0.07100
C3791       C  0.11371639  0.48062995  0.60142550    -0.02700
C3792       C  0.09990628  0.48623339  0.61544782    -0.02700
C3793       C  0.08395354  0.49860604  0.61024212     0.07200
C3794       C  0.07836135  0.49846991  0.59074848    -0.02900
Br3795     Br  0.05561743  0.51212348  0.58124716    -0.01500
Br3796     Br  0.08388121  0.48647742  0.55102066    -0.01600
Br3797     Br  0.10386067  0.47736693  0.64099882    -0.01500
Br3798     Br  0.13805796  0.46799619  0.60787034    -0.01500
C3799       C  0.22863161  0.51675949  0.62330767    -0.02600
C3800       C  0.22204813  0.53530020  0.61830955     0.07100
C3801       C  0.22121209  0.54993388  0.63272147    -0.02700
C3802       C  0.22638534  0.54592927  0.65187743    -0.02700
C3803       C  0.23131394  0.52686951  0.65728350     0.07200
C3804       C  0.23266688  0.51239244  0.64251155    -0.02900
Br3805     Br  0.23786675  0.48577113  0.64813506    -0.01500
Br3806     Br  0.23092533  0.49682511  0.60354680    -0.01600
Br3807     Br  0.22688574  0.56691276  0.67043779    -0.01500
Br3808     Br  0.21097866  0.57509690  0.62665954    -0.01500
C3809       C  0.22882314  0.61977940  0.51458274    -0.02600
C3810       C  0.20941232  0.61729978  0.52052231     0.07100
C3811       C  0.19589105  0.63307412  0.51955480    -0.02700
C3812       C  0.20144269  0.65063524  0.51235767    -0.02700
C3813       C  0.22074743  0.65317674  0.50653715     0.07200
C3814       C  0.23445618  0.63770789  0.50759858    -0.02900
Br3815     Br  0.26088512  0.64130922  0.49971715    -0.01500
Br3816     Br  0.24755332  0.59869149  0.51568740    -0.01600
Br3817     Br  0.18230405  0.67154380  0.51038366    -0.01500
Br3818     Br  0.16955865  0.63137002  0.52889033    -0.01500
C3819       C  0.10513629  0.51118468  0.48405732    -0.02600
C3820       C  0.11485308  0.49734127  0.49513497     0.07100
C3821       C  0.10432460  0.48150323  0.50087330    -0.02700
C3822       C  0.08381520  0.48166595  0.49944189    -0.02700
C3823       C  0.07364313  0.49733614  0.49122529     0.07200
C3824       C  0.08465195  0.51100791  0.48180592    -0.02900
Br3825     Br  0.07175846  0.52897454  0.46528090    -0.01500
Br3826     Br  0.12011929  0.53038478  0.47224664    -0.01600
Br3827     Br  0.06971612  0.46053426  0.50911686    -0.01500
Br3828     Br  0.11851405  0.45997588  0.51129581    -0.01500
C3829       C  0.11175950  0.71918571  0.63992754    -0.02600
C3830       C  0.12688827  0.73028948  0.63284181     0.07100
C3831       C  0.12444179  0.73911151  0.61515553    -0.02700
C3832       C  0.10816935  0.73483719  0.60371521    -0.02700
C3833       C  0.09498574  0.72104920  0.60982007     0.07200
C3834       C  0.09553844  0.71538477  0.62878324    -0.02900
Br3835     Br  0.07358496  0.70288302  0.63974685    -0.01500
Br3836     Br  0.11381235  0.70623655  0.66357317    -0.01600
Br3837     Br  0.10402978  0.74819923  0.58027714    -0.01500
Br3838     Br  0.14339886  0.75672776  0.60669734    -0.01500
C3839       C  0.19403665  0.65560263  0.59720441    -0.02600
C3840       C  0.21170008  0.65530384  0.60722852     0.07100
C3841       C  0.22485191  0.63958232  0.60464360    -0.02700
C3842       C  0.21916609  0.62289895  0.59464402    -0.02700
C3843       C  0.19976251  0.62174118  0.58779449     0.07200
C3844       C  0.18772428  0.63875638  0.58814484    -0.02900
Br3845     Br  0.16206920  0.63984342  0.57701352    -0.01500
Br3846     Br  0.17746510  0.67859755  0.59692911    -0.01600
Br3847     Br  0.23817964  0.60191519  0.59173321    -0.01500
Br3848     Br  0.25056870  0.64109407  0.61545102    -0.01500
C3849       C  0.14991026  0.61265138  0.71622565    -0.02600
C3850       C  0.14621260  0.63104498  0.72463985     0.07100
C3851       C  0.12757892  0.63544147  0.73216632    -0.02700
C3852       C  0.11177759  0.62421760  0.72660317    -0.02700
C3853       C  0.11507113  0.60666519  0.71640984     0.07200
C3854       C  0.13447320  0.60029483  0.71253082    -0.02900
Br3855     Br  0.13976888  0.57565445  0.69994352    -0.01500
Br3856     Br  0.17569392  0.60594421  0.70671489    -0.01600
Br3857     Br  0.08593993  0.63521387  0.72893642    -0.01500
Br3858     Br  0.12366142  0.65774884  0.74870000    -0.01500
C3859       C  0.10472692  0.73894404  0.75014030    -0.02600
C3860       C  0.09100622  0.73296886  0.73631572     0.07100
C3861       C  0.09650100  0.71793907  0.72323507    -0.02700
C3862       C  0.11439917  0.70802648  0.72491229    -0.02700
C3863       C  0.12868548  0.71510885  0.73723186     0.07200
C3864       C  0.12365401  0.73030353  0.75018227    -0.02900
Br3865     Br  0.14295517  0.73887044  0.76805243    -0.01500
Br3866     Br  0.09840987  0.75921969  0.76859621    -0.01600
Br3867     Br  0.11960184  0.68551067  0.70903322    -0.01500
Br3868     Br  0.08131760  0.71301355  0.70064495    -0.01500
C3869       C  0.22441714  0.62016316  0.74016220    -0.02600
C3870       C  0.23477880  0.63152882  0.72751253     0.07100
C3871       C  0.25352320  0.62483878  0.72125095    -0.02700
C3872       C  0.25983755  0.60563279  0.72407953    -0.02700
C3873       C  0.24825676  0.59362124  0.73479570     0.07200
C3874       C  0.23170999  0.60168999  0.74443849    -0.02900
Br3875     Br  0.21867163  0.58707926  0.76334187    -0.01500
Br3876     Br  0.19921160  0.62835431  0.75020476    -0.01600
Br3877     Br  0.28333102  0.59552436  0.71193854    -0.01500
Br3878     Br  0.27056583  0.64198528  0.70874274    -0.01500
C3879       C  0.21855423  0.75932700  0.61869104    -0.02600
C3880       C  0.23001905  0.74574396  0.62865795     0.07100
C3881       C  0.24356801  0.73370178  0.61842898    -0.02700
C3882       C  0.24348786  0.73327602  0.59830146    -0.02700
C3883       C  0.23083400  0.74580348  0.58835627     0.07200
C3884       C  0.21915186  0.75950538  0.59864035    -0.02900
Br3885     Br  0.20287998  0.77766464  0.58522483    -0.01500
Br3886     Br  0.20141826  0.77738256  0.63253883    -0.01600
Br3887     Br  0.26051459  0.71522411  0.58438348    -0.01500
Br3888     Br  0.26184851  0.71731060  0.63166390    -0.01500
C3889       C  0.44834114  0.86317818  0.22840051    -0.02600
C3890       C  0.45445894  0.87172726  0.24573611     0.07100
C3891       C  0.46551285  0.86040946  0.25829821    -0.02700
C3892       C  0.46784432  0.84035037  0.25507596    -0.02700
C3893       C  0.45941847  0.83124670  0.23890883     0.07200
C3894       C  0.45092490  0.84307277  0.22486291    -0.02900
Br3895     Br  0.44164664  0.83183917  0.20134464    -0.01500
Br3896     Br  0.43514667  0.87917673  0.21025447    -0.01600
Br3897     Br  0.48283954  0.82550562  0.27296671    -0.01500
Br3898     Br  0.47620176  0.87257126  0.28079339    -0.01500
C3899       C  0.30828528  0.00177171  0.26578629    -0.02600
C3900       C  0.30113717  0.99311091  0.24882815     0.07100
C3901       C  0.31437853  0.98796256  0.23403258    -0.02700
C3902       C  0.33453631  0.98916470  0.23716317    -0.02700
C3903       C  0.34167745  0.99339152  0.25572818     0.07200
C3904       C  0.32848516  0.00197229  0.26926851    -0.02900
Br3905     Br  0.33764305  0.01472630  0.29221702    -0.30300
Br3906     Br  0.29040407  0.01365499  0.28420705    -0.01600
Br3907     Br  0.35215298  0.98557336  0.21572064    -0.01500
Br3908     Br  0.30530231  0.97741005  0.21007994    -0.01500
C3909       C  0.40974563  0.97645406  0.37692486    -0.02600
C3910       C  0.41986302  0.98367102  0.36124825     0.07100
C3911       C  0.43506198  0.99628895  0.36475535    -0.02700
C3912       C  0.44081253  0.00087966  0.38370056    -0.02700
C3913       C  0.43076200  0.99356913  0.39946113     0.07200
C3914       C  0.41488802  0.98155532  0.39580158    -0.02900
Br3915     Br  0.39987005  0.97159801  0.41639958    -0.01500
Br3916     Br  0.38901932  0.95880294  0.37262089    -0.01600
Br3917     Br  0.46399491  0.01520502  0.38774331    -0.01500
Br3918     Br  0.44859078  0.00643272  0.34341808    -0.01500
C3919       C  0.31281227  0.97704912  0.35996765    -0.02600
C3920       C  0.32262964  0.98130675  0.37714748     0.07100
C3921       C  0.34060820  0.99048952  0.37621626    -0.02700
C3922       C  0.34907670  0.99425771  0.35843543    -0.02700
C3923       C  0.34094768  0.98657063  0.34169707     0.07200
C3924       C  0.32161895  0.98056622  0.34233836    -0.02900
Br3925     Br  0.30891748  0.97372376  0.31876233    -0.01500
Br3926     Br  0.28994860  0.96190482  0.36004208    -0.01600
Br3927     Br  0.37264807  0.00827086  0.35695800    -0.01500
Br3928     Br  0.35558950  0.99451189  0.39878530    -0.01500
C3929       C  0.24182388  0.85274895  0.47731685    -0.02600
C3930       C  0.24985261  0.86597869  0.49029831     0.07100
C3931       C  0.25827242  0.85926070  0.50715699    -0.02700
C3932       C  0.26145343  0.83938175  0.50964654    -0.02700
C3933       C  0.25502702  0.82600292  0.49564945     0.07200
C3934       C  0.24442686  0.83287311  0.47981424    -0.02900
Br3935     Br  0.23334748  0.81539354  0.46124205    -0.01500
Br3936     Br  0.22828375  0.86226811  0.45537335    -0.01600
Br3937     Br  0.27646121  0.83083218  0.53115917    -0.01500
Br3938     Br  0.26573641  0.87780386  0.52640367    -0.01500
C3939       C  0.24541892  0.98345187  0.36714516    -0.02600
C3940       C  0.23974182  0.96664518  0.37635469     0.07100
C3941       C  0.22529636  0.95540017  0.36746416    -0.02700
C3942       C  0.21912105  0.95900884  0.34872733    -0.02700
C3943       C  0.22687127  0.97412463  0.33869321     0.07200
C3944       C  0.23946540  0.98676402  0.34819340    -0.02900
Br3945     Br  0.24875409  0.00861093  0.33508445    -0.01500
Br3946     Br  0.26149607  0.00209916  0.37984151    -0.01600
Br3947     Br  0.20063926  0.94259441  0.33639263    -0.01500
Br3948     Br  0.21268439  0.93568915  0.38113960    -0.01500
C3949       C  0.35716127  0.99357226  0.49054067    -0.02600
C3950       C  0.37018425  0.99591567  0.47522958     0.07100
C3951       C  0.36272970  0.00352325  0.45816065    -0.02700
C3952       C  0.34242456  0.00505405  0.45523386    -0.02700
C3953       C  0.32962004  0.99872982  0.46919867     0.07200
C3954       C  0.33699056  0.99604576  0.48775687    -0.02900
Br3955     Br  0.31965078  0.99701997  0.50952481    -0.01500
Br3956     Br  0.36671186  0.98639403  0.51526746    -0.01600
Br3957     Br  0.33179638  0.01910104  0.43424937    -0.01500
Br3958     Br  0.38016927  0.01400314  0.43996209    -0.01500
C3959       C  0.44487598  0.87616839  0.37051443    -0.02600
C3960       C  0.42806560  0.87470649  0.38188753     0.07100
C3961       C  0.40955303  0.87557790  0.37316844    -0.02700
C3962       C  0.40803060  0.87594026  0.35319529    -0.02700
C3963       C  0.42495463  0.87674181  0.34181389     0.07200
C3964       C  0.44340202  0.87613536  0.35060194    -0.02900
Br3965     Br  0.46689639  0.87470084  0.33528878    -0.01500
Br3966     Br  0.46998591  0.87935220  0.38230126    -0.01600
Br3967     Br  0.38246948  0.87544600  0.34185234    -0.01500
Br3968     Br  0.38591091  0.87673024  0.38816540    -0.01500
C3969       C  0.37848718  0.88695045  0.49984532    -0.02600
C3970       C  0.37389909  0.86736887  0.49867481     0.07100
C3971       C  0.35609312  0.86195199  0.50670557    -0.02700
C3972       C  0.34120266  0.87602310  0.50953296    -0.02700
C3973       C  0.34426677  0.89500206  0.50432888     0.07200
C3974       C  0.36352484  0.90093444  0.50275468    -0.02900
Br3975     Br  0.36919785  0.92773552  0.50210938    -0.01500
Br3976     Br  0.40481625  0.89457500  0.49618849    -0.01600
Br3977     Br  0.31575838  0.86914799  0.51765991    -0.01500
Br3978     Br  0.35104104  0.83570959  0.51245835    -0.01500
C3979       C  0.46730080  0.77362148  0.35612671    -0.02600
C3980       C  0.45446941  0.76397108  0.36825461     0.07100
C3981       C  0.44821423  0.74581975  0.36176712    -0.02700
C3982       C  0.45024910  0.74012783  0.34223707    -0.02700
C3983       C  0.45949797  0.75211887  0.32926981     0.07200
C3984       C  0.46915595  0.76819230  0.33667786    -0.02900
Br3985     Br  0.48585911  0.78240507  0.32037396    -0.01500
Br3986     Br  0.48465024  0.79257311  0.36630943    -0.01600
Br3987     Br  0.43974817  0.71621491  0.33339621    -0.01500
Br3988     Br  0.43996564  0.72751390  0.37989674    -0.01500
C3989       C  0.36533435  0.74919421  0.48787606    -0.02600
C3990       C  0.37150902  0.74621132  0.46878227     0.07100
C3991       C  0.35863652  0.73745743  0.45584366    -0.02700
C3992       C  0.33875520  0.73637708  0.46068294    -0.02700
C3993       C  0.33187613  0.74423861  0.47830757     0.07200
C3994       C  0.34543364  0.74968123  0.49232950    -0.02900
Br3995     Br  0.33685061  0.75931715  0.51717202    -0.01500
Br3996     Br  0.38429614  0.75443987  0.50739338    -0.01600
Br3997     Br  0.32109782  0.72356143  0.44368593    -0.01500
Br3998     Br  0.36827433  0.72629599  0.43211492    -0.01500
C3999       C  0.45679613  0.88463837  0.49809389    -0.02600
C4000       C  0.46298008  0.87779410  0.47991228     0.07100
C4001       C  0.47053748  0.89066313  0.46700426    -0.02700
C4002       C  0.46858308  0.91050192  0.47073959    -0.02700
C4003       C  0.45936992  0.91759753  0.48772812     0.07200
C4004       C  0.45485688  0.90460888  0.50203911    -0.02900
Br4005     Br  0.44414713  0.91396769  0.52613825    -0.01500
Br4006     Br  0.44912217  0.86649647  0.51662185    -0.01600
Br4007     Br  0.47830586  0.92763652  0.45210940    -0.01500
Br4008     Br  0.48079097  0.88085465  0.44278347    -0.01500
C4009       C  0.32586802  0.75461895  0.38543805    -0.02600
C4010       C  0.33143153  0.74573633  0.36785783     0.07100
C4011       C  0.34992024  0.73669853  0.36646323    -0.02700
C4012       C  0.36469416  0.74270454  0.37887493    -0.02700
C4013       C  0.35985651  0.75527345  0.39441138     0.07200
C4014       C  0.34006437  0.75857170  0.39913002    -0.02900
Br4015     Br  0.33263821  0.77036544  0.42341331    -0.01500
Br4016     Br  0.30004483  0.76559945  0.38901891    -0.01600
Br4017     Br  0.39117573  0.73571124  0.37293115    -0.01500
Br4018     Br  0.35478251  0.71712944  0.34701543    -0.01500
C4019       C  0.25920965  0.85682179  0.37180691    -0.02600
C4020       C  0.27491479  0.85809365  0.35900718     0.07100
C4021       C  0.29374205  0.86174493  0.36626222    -0.02700
C4022       C  0.29655574  0.86365274  0.38605497    -0.02700
C4023       C  0.28084842  0.86136040  0.39863756     0.07200
C4024       C  0.26271193  0.85614411  0.39131555    -0.02900
Br4025     Br  0.24224613  0.84886714  0.40820855    -0.01500
Br4026     Br  0.23254237  0.85782138  0.36305804    -0.01600
Br4027     Br  0.32166365  0.87082433  0.39558574    -0.01500
Br4028     Br  0.31588289  0.86541159  0.34981239    -0.01500
C4029       C  0.35065479  0.84233156  0.23714354    -0.02600
C4030       C  0.33154943  0.84660954  0.24389679     0.07100
C4031       C  0.32317397  0.86500442  0.24061597    -0.02700
C4032       C  0.33504608  0.87984699  0.23503938    -0.02700
C4033       C  0.35535602  0.87663215  0.23453138     0.07200
C4034       C  0.36260495  0.85753085  0.23252224    -0.02900
Br4035     Br  0.38932556  0.85267362  0.22498579    -0.01500
Br4036     Br  0.36124848  0.81640749  0.23552479    -0.01600
Br4037     Br  0.32348392  0.90439866  0.22894880    -0.01500
Br4038     Br  0.29574810  0.87029514  0.24483445    -0.01500
C4039       C  0.36319966  0.74690122  0.28877644    -0.02600
C4040       C  0.34775205  0.74222459  0.27634040     0.07100
C4041       C  0.35197872  0.73909198  0.25673192    -0.02700
C4042       C  0.37054027  0.74274575  0.24942689    -0.02700
C4043       C  0.38579895  0.74784835  0.26184099     0.07200
C4044       C  0.38215404  0.74917740  0.28166443    -0.02900
Br4045     Br  0.40318335  0.75349412  0.29946064    -0.01500
Br4046     Br  0.35883428  0.75184023  0.31543554    -0.01600
Br4047     Br  0.37436704  0.74213764  0.22212174    -0.01500
Br4048     Br  0.33223454  0.72963580  0.23965623    -0.01500
C4049       C  0.23988623  0.75633535  0.38355380    -0.02600
C4050       C  0.25557722  0.74855057  0.37219883     0.07100
C4051       C  0.26650691  0.73274842  0.37958913    -0.02700
C4052       C  0.26434027  0.72772963  0.39896810    -0.02700
C4053       C  0.25049279  0.73750215  0.41091975     0.07200
C4054       C  0.23758485  0.75104170  0.40275286    -0.02900
Br4055     Br  0.21670559  0.76249509  0.41815806    -0.01500
Br4056     Br  0.22057379  0.77345746  0.37267497    -0.01600
Br4057     Br  0.28147148  0.70847212  0.40963710    -0.01500
Br4058     Br  0.28495403  0.71796293  0.36387084    -0.01500
C4059       C  0.23234964  0.89602626  0.27870210    -0.02600
C4060       C  0.23446064  0.90326246  0.26030694     0.07100
C4061       C  0.23837976  0.89017593  0.24477974    -0.02700
C4062       C  0.24144816  0.87029651  0.24793758    -0.02700
C4063       C  0.24050338  0.86334335  0.26657358     0.07200
C4064       C  0.23498293  0.87625443  0.28171116    -0.02900
Br4065     Br  0.23245812  0.86686770  0.30718930    -0.01500
Br4066     Br  0.22603608  0.91317549  0.30007411    -0.01600
Br4067     Br  0.24785245  0.85266328  0.22700507    -0.01500
Br4068     Br  0.24130855  0.89967803  0.21941751    -0.01500
C4069       C  0.64119213  0.02452979  0.74382153    -0.02600
C4070       C  0.65322540  0.01347693  0.73098492     0.07100
C4071       C  0.64433228  0.00107747  0.71756747    -0.02700
C4072       C  0.62388380  0.00144759  0.71555099    -0.02700
C4073       C  0.61202539  0.01453737  0.72648124     0.07200
C4074       C  0.62069432  0.02508881  0.74149747    -0.02900
Br4075     Br  0.60434554  0.04192640  0.75744885    -0.01500
Br4076     Br  0.65285695  0.04026569  0.76344193    -0.01600
Br4077     Br  0.61195934  0.98546732  0.69629777    -0.01500
Br4078     Br  0.66011569  0.98369027  0.70162262    -0.01500
C4079       C  0.48238646  0.12557285  0.71967991    -0.02600
C4080       C  0.48139892  0.11756548  0.70089971     0.07100
C4081       C  0.47111455  0.12835614  0.68717836    -0.02700
C4082       C  0.46587125  0.14805150  0.69106197    -0.02700
C4083       C  0.46987003  0.15676525  0.70904959     0.07200
C4084       C  0.47693977  0.14499757  0.72364626    -0.02900
Br4085     Br  0.47997194  0.15575205  0.74909795    -0.01500
Br4086     Br  0.49075082  0.10961873  0.74031171    -0.01600
Br4087     Br  0.45337443  0.16318079  0.67181760    -0.01500
Br4088     Br  0.46302291  0.11594940  0.66381035    -0.01500
C4089       C  0.48366540  0.01646417  0.60217849    -0.02600
C4090       C  0.50058835  0.02692799  0.60552914     0.07100
C4091       C  0.51204090  0.03177510  0.58965199    -0.02700
C4092       C  0.50783416  0.02485438  0.57122500    -0.02700
C4093       C  0.49060142  0.01523306  0.56758230     0.07200
C4094       C  0.47847550  0.01090022  0.58321205    -0.02900
Br4095     Br  0.45487660  0.99735908  0.57881833    -0.01500
Br4096     Br  0.46778329  0.00979680  0.62347277    -0.01600
Br4097     Br  0.52699079  0.02670204  0.55121543    -0.01500
Br4098     Br  0.53294758  0.04930795  0.59241220    -0.01500
C4099       C  0.61217048  0.98795574  0.63213700    -0.02600
C4100       C  0.61690251  0.00324545  0.64512049     0.07100
C4101       C  0.63689165  0.00649833  0.64822713    -0.02700
C4102       C  0.65057968  0.99787919  0.63544874    -0.02700
C4103       C  0.64387027  0.99029723  0.61786563     0.07200
C4104       C  0.62574054  0.98185891  0.61802638    -0.02900
Br4105     Br  0.61919034  0.96385968  0.59788546    -0.01500
Br4106     Br  0.58769239  0.97525802  0.63315050    -0.01600
Br4107     Br  0.67812033  0.99963157  0.63999698    -0.01500
Br4108     Br  0.64606137  0.02342633  0.66829663    -0.01500
C4109       C  0.72716888  0.99868298  0.61361656    -0.02600
C4110       C  0.72863708  0.01584403  0.60373039     0.07100
C4111       C  0.73908521  0.03094801  0.61215223    -0.02700
C4112       C  0.74501603  0.03017873  0.63137929    -0.02700
C4113       C  0.74070501  0.01413546  0.64212120     0.07200
C4114       C  0.73353293  0.99771961  0.63266494    -0.02900
Br4115     Br  0.73219218  0.97404216  0.64585690    -0.01500
Br4116     Br  0.71444800  0.97731240  0.60162583    -0.01600
Br4117     Br  0.75814631  0.05133810  0.64329221    -0.01500
Br4118     Br  0.74324620  0.05352600  0.59781420    -0.01500
C4119       C  0.65476918  0.13363458  0.50345606    -0.02600
C4120       C  0.66862151  0.11829365  0.50181086     0.07100
C4121       C  0.68709914  0.12154331  0.49421457    -0.02700
C4122       C  0.69242887  0.14026587  0.48993322    -0.02700
C4123       C  0.67880873  0.15596755  0.49233320     0.07200
C4124       C  0.65955234  0.15220751  0.49796780    -0.02900
Br4125     Br  0.63940609  0.17222567  0.49788939    -0.01500
Br4126     Br  0.62992304  0.12973092  0.51524729    -0.01600
Br4127     Br  0.71914399  0.14391853  0.48272870    -0.01500
Br4128     Br  0.70570393  0.10021961  0.49134981    -0.01500
C4129       C  0.58154878  0.00238138  0.50859956    -0.02600
C4130       C  0.59245228  0.01838221  0.50338400     0.07100
C4131       C  0.58343180  0.03188859  0.49117798    -0.02700
C4132       C  0.56314655  0.03190726  0.48811465    -0.02700
C4133       C  0.55212374  0.01676218  0.49458848     0.07200
C4134       C  0.56164556  0.00146935  0.50390759    -0.02900
Br4135     Br  0.54714122  0.97946695  0.51097811    -0.01500
Br4136     Br  0.59388396  0.98069082  0.52082209    -0.01600
Br4137     Br  0.55043178  0.05275509  0.47498921    -0.01500
Br4138     Br  0.59857621  0.04874084  0.47630963    -0.01500
C4139       C  0.59578610  0.11657617  0.74312595    -0.02600
C4140       C  0.60203578  0.09922386  0.73342849     0.07100
C4141       C  0.62226439  0.09472354  0.73272249    -0.02700
C4142       C  0.63533531  0.10925818  0.73649592    -0.02700
C4143       C  0.62809434  0.12831774  0.73823933     0.07200
C4144       C  0.60902564  0.13143796  0.74526968    -0.02900
Br4145     Br  0.60096012  0.15601513  0.75661385    -0.01500
Br4146     Br  0.56969207  0.12062509  0.75305449    -0.01600
Br4147     Br  0.66300514  0.10381367  0.73565021    -0.01500
Br4148     Br  0.63263219  0.06974728  0.72466573    -0.01500
C4149       C  0.70990312  0.09645000  0.65058204    -0.02600
C4150       C  0.71465833  0.11517741  0.64562262     0.07100
C4151       C  0.72457581  0.11739044  0.62822735    -0.02700
C4152       C  0.72189521  0.10387381  0.61335616    -0.02700
C4153       C  0.71043464  0.08794837  0.61684960     0.07200
C4154       C  0.70808649  0.08248867  0.63602188    -0.02900
Br4155     Br  0.70143792  0.05679550  0.64278579    -0.01500
Br4156     Br  0.70343992  0.09035221  0.67647421    -0.01600
Br4157     Br  0.73364524  0.10734596  0.58872700    -0.01500
Br4158     Br  0.74034997  0.13929729  0.62445878    -0.01500
C4159       C  0.73764753  0.10069878  0.71016557    -0.02600
C4160       C  0.72903519  0.09023469  0.72467935     0.07100
C4161       C  0.71880987  0.10045544  0.73947967    -0.02700
C4162       C  0.71466129  0.12036994  0.73804395    -0.02700
C4163       C  0.72007499  0.13006623  0.72160385     0.07200
C4164       C  0.73301417  0.12051181  0.70854225    -0.02900
Br4165     Br  0.74302826  0.13441424  0.68755970    -0.01500
Br4166     Br  0.75558757  0.08780044  0.69247010    -0.01600
Br4167     Br  0.70084608  0.13458754  0.75808782    -0.01500
Br4168     Br  0.70985565  0.08704624  0.76133286    -0.01500
C4169       C  0.67377737  0.24203332  0.59738721    -0.02600
C4170       C  0.68745445  0.23286571  0.60930383     0.07100
C4171       C  0.70627597  0.22866020  0.60199020    -0.02700
C4172       C  0.70991365  0.22870603  0.58224927    -0.02700
C4173       C  0.69542894  0.23566072  0.56972036     0.07200
C4174       C  0.67781504  0.24360314  0.57769503    -0.02900
Br4175     Br  0.65916759  0.25696018  0.56195753    -0.01500
Br4176     Br  0.64986065  0.25298463  0.60789843    -0.01600
Br4177     Br  0.73395728  0.21687559  0.57276323    -0.01500
Br4178     Br  0.72732427  0.22368934  0.61939799    -0.01500
C4179       C  0.58678962  0.24922164  0.71668071    -0.02600
C4180       C  0.59129859  0.24052525  0.69865387     0.07100
C4181       C  0.57602482  0.23775310  0.68554839    -0.02700
C4182       C  0.55680224  0.24375152  0.69026972    -0.02700
C4183       C  0.55194415  0.25037251  0.70894966     0.07200
C4184       C  0.56718653  0.25370729  0.72199032    -0.02900
Br4185     Br  0.56124954  0.26265150  0.74765753    -0.01500
Br4186     Br  0.60748834  0.25360662  0.73458813    -0.01600
Br4187     Br  0.53693351  0.24259376  0.67099475    -0.01500
Br4188     Br  0.58025840  0.22224947  0.66261704    -0.01500
C4189       C  0.49282512  0.12578427  0.62401113    -0.02600
C4190       C  0.49177323  0.10576243  0.62195023     0.07100
C4191       C  0.48092490  0.09767886  0.60688329    -0.02700
C4192       C  0.47393194  0.10942219  0.59222655    -0.02700
C4193       C  0.47748106  0.12921372  0.59288300     0.07200
C4194       C  0.48566814  0.13753942  0.60962153    -0.02900
Br4195     Br  0.48983390  0.16470373  0.61254089    -0.01500
Br4196     Br  0.50499352  0.13711949  0.64635934    -0.01600
Br4197     Br  0.46009028  0.09844456  0.57090768    -0.01500
Br4198     Br  0.47672473  0.07055680  0.60549385    -0.01500
C4199       C  0.60134615  0.21026025  0.57790154    -0.02600
C4200       C  0.58309301  0.21913204  0.58222411     0.07100
C4201       C  0.58146033  0.23248383  0.59769860    -0.02700
C4202       C  0.59701907  0.23412115  0.61064041    -0.02700
C4203       C  0.61317544  0.22124163  0.60885715     0.07200
C4204       C  0.61641392  0.21127211  0.59128977    -0.02900
Br4205     Br  0.64115605  0.19821249  0.58623048    -0.01500
Br4206     Br  0.60514952  0.19564984  0.55429258    -0.01600
Br4207     Br  0.59638263  0.25383301  0.63042841    -0.01500
Br4208     Br  0.55748770  0.24691921  0.60230222    -0.01500
C4209       C  0.55020183  0.09252549  0.51884426    -0.02600
C4210       C  0.55153077  0.10723748  0.50549786     0.07100
C4211       C  0.56766661  0.10699846  0.49299345    -0.02700
C4212       C  0.58438347  0.09566548  0.49702531    -0.02700
C4213       C  0.58400651  0.08311528  0.51247722     0.07200
C4214       C  0.56599510  0.07959310  0.52104933    -0.02900
Br4215     Br  0.56315729  0.05709220  0.53594780    -0.01500
Br4216     Br  0.52887568  0.09151563  0.53674013    -0.01600
Br4217     Br  0.60758215  0.09864760  0.48202165    -0.01500
Br4218     Br  0.56708226  0.12294707  0.47097046    -0.01500
C4219       C  0.58809582  0.24146121  0.50798007    -0.02600
C4220       C  0.57549167  0.22975947  0.49734658     0.07100
C4221       C  0.58081733  0.22404678  0.47833589    -0.02700
C4222       C  0.59982930  0.22680649  0.47153964    -0.02700
C4223       C  0.61323221  0.23619603  0.48332880     0.07200
C4224       C  0.60667335  0.24503098  0.50072126    -0.02900
Br4225     Br  0.62360372  0.26147632  0.51520233    -0.01500
Br4226     Br  0.58137946  0.25084965  0.53343845    -0.01600
Br4227     Br  0.60792197  0.21610263  0.44698593    -0.01500
Br4228     Br  0.56238531  0.21151543  0.46179442    -0.01500
C4229       C  0.51087183  0.21985659  0.62234018    -0.02600
C4230       C  0.50448233  0.23309609  0.60879923     0.07100
C4231       C  0.49291942  0.24904114  0.61504129    -0.02700
C4232       C  0.48713046  0.25107644  0.63446399    -0.02700
C4233       C  0.49062004  0.23578925  0.64729736     0.07200
C4234       C  0.50271408  0.22001414  0.64077004    -0.02900
Br4235     Br  0.50699010  0.19726870  0.65558812    -0.01500
Br4236     Br  0.53041503  0.20076783  0.61491087    -0.01600
Br4237     Br  0.47541269  0.27535252  0.64301022    -0.01500
Br4238     Br  0.48477778  0.26773985  0.59678229    -0.01500
C4239       C  0.45063574  0.10137946  0.49104631    -0.02600
C4240       C  0.46476019  0.09346845  0.47828549     0.07100
C4241       C  0.47681254  0.10574994  0.46837644    -0.02700
C4242       C  0.47574621  0.12574457  0.47245670    -0.02700
C4243       C  0.46373574  0.13318569  0.48757268     0.07200
C4244       C  0.45033050  0.12104233  0.49597841    -0.02900
Br4245     Br  0.43185295  0.13114388  0.51487669    -0.01500
Br4246     Br  0.43190181  0.08511456  0.50216272    -0.01600
Br4247     Br  0.49112968  0.14248887  0.45761411    -0.01500
Br4248     Br  0.49580563  0.09500277  0.45043820    -0.01500
C4249       C  0.42607804  0.27469418  0.82925325    -0.02600
C4250       C  0.44110718  0.26073611  0.82411198     0.07100
C4251       C  0.44971909  0.25008065  0.83936975    -0.02700
C4252       C  0.44474565  0.25452410  0.85872031    -0.02700
C4253       C  0.43065300  0.26887701  0.86339562     0.07200
C4254       C  0.42063738  0.27807272  0.84857262    -0.02900
Br4255     Br  0.39869460  0.29513787  0.85498240    -0.01500
Br4256     Br  0.41234528  0.29018393  0.81073783    -0.01600
Br4257     Br  0.45746386  0.24128244  0.87929244    -0.01500
Br4258     Br  0.46859696  0.22921463  0.83506019    -0.01500
C4259       C  0.34260067  0.24303141  0.95520481    -0.02600
C4260       C  0.35674185  0.24928346  0.96819487     0.07100
C4261       C  0.35153667  0.25074115  0.98768893    -0.02700
C4262       C  0.33184404  0.25186105  0.99331415    -0.02700
C4263       C  0.31707048  0.24884799  0.97967438     0.07200
C4264       C  0.32278043  0.24292189  0.96081845    -0.02900
Br4265     Br  0.30378096  0.23444251  0.94252722    -0.01500
Br4266     Br  0.35064652  0.23340959  0.93035112    -0.01600
Br4267     Br  0.32566435  0.26011173  0.01921673    -0.01500
Br4268     Br  0.37183612  0.25237293  0.00650771    -0.01500
C4269       C  0.45593582  0.37705302  0.00783632    -0.02600
C4270       C  0.46401811  0.36842261  0.99103324     0.07100
C4271       C  0.47584090  0.37948658  0.97949775    -0.02700
C4272       C  0.47748894  0.39939984  0.98330797    -0.02700
C4273       C  0.46708705  0.40858319  0.99865525     0.07200
C4274       C  0.45730715  0.39702335  0.01162064    -0.02900
Br4275     Br  0.44466234  0.40859459  0.03395906    -0.01500
Br4276     Br  0.44145930  0.36139340  0.02466423    -0.01600
Br4277     Br  0.49435116  0.41393079  0.96759840    -0.01500
Br4278     Br  0.48813106  0.36749170  0.95723887    -0.01500
C4279       C  0.33633313  0.24566583  0.87004641    -0.02600
C4280       C  0.31845103  0.25585502  0.87081304     0.07100
C4281       C  0.31351800  0.26599594  0.88791995    -0.02700
C4282       C  0.32817838  0.27044741  0.90102969    -0.02700
C4283       C  0.34776297  0.26583061  0.89624198     0.07200
C4284       C  0.35176239  0.25200471  0.88145617    -0.02900
Br4285     Br  0.37792425  0.24321227  0.87524934    -0.01500
Br4286     Br  0.33905554  0.22351766  0.85325871    -0.01600
Br4287     Br  0.32154435  0.28308049  0.92514129    -0.01500
Br4288     Br  0.28789026  0.27760548  0.89117311    -0.01500
C4289       C  0.34449250  0.23629147  0.76113429    -0.02600
C4290       C  0.34059908  0.24319323  0.78004037     0.07100
C4291       C  0.35630824  0.24375816  0.79302492    -0.02700
C4292       C  0.37551278  0.23918426  0.78679594    -0.02700
C4293       C  0.37952302  0.23535319  0.76731746     0.07200
C4294       C  0.36384867  0.23279874  0.75470105    -0.02900
Br4295     Br  0.36891100  0.22635280  0.72815318    -0.01500
Br4296     Br  0.32329737  0.23292473  0.74354734    -0.01600
Br4297     Br  0.39657624  0.23834363  0.80489053    -0.01500
Br4298     Br  0.35251519  0.25385472  0.81856343    -0.01500
C4299       C  0.25692693  0.38672167  0.74617536    -0.02600
C4300       C  0.24560483  0.37729389  0.75948164     0.07100
C4301       C  0.22971401  0.38735024  0.76828025    -0.02700
C4302       C  0.22680759  0.40729340  0.76564856    -0.02700
C4303       C  0.24027888  0.41735656  0.75475850     0.07200
C4304       C  0.25466068  0.40671529  0.74411242    -0.02900
Br4305     Br  0.27140526  0.41938538  0.72674121    -0.01500
Br4306     Br  0.27614907  0.37189233  0.73149437    -0.01600
Br4307     Br  0.20525830  0.42088046  0.77820156    -0.01500
Br4308     Br  0.21291320  0.37401245  0.78503392    -0.01500
C4309       C  0.23867735  0.24867119  0.89605981    -0.02600
C4310       C  0.22526324  0.26139001  0.90571827     0.07100
C4311       C  0.21641053  0.27625263  0.89545934    -0.02700
C4312       C  0.22235750  0.27960364  0.87649620    -0.02700
C4313       C  0.23840308  0.26897987  0.86785497     0.07200
C4314       C  0.24547950  0.25249281  0.87743782    -0.02900
Br4315     Br  0.26520677  0.23537302  0.86608325    -0.01500
Br4316     Br  0.24770047  0.22580894  0.90856416    -0.01600
Br4317     Br  0.20771798  0.29858710  0.86247603    -0.01500
Br4318     Br  0.19681339  0.29267539  0.90795573    -0.01500
C4319       C  0.46312629  0.41460202  0.90775724    -0.02600
C4320       C  0.47086288  0.40940628  0.88962609     0.07100
C4321       C  0.48062671  0.39148423  0.88746461    -0.02700
C4322       C  0.47583428  0.37683155  0.89974848    -0.02700
C4323       C  0.46155714  0.38071312  0.91418080     0.07200
C4324       C  0.45793633  0.40010902  0.92008851    -0.02900
Br4325     Br  0.44540305  0.40729410  0.94405813    -0.01500
Br4326     Br  0.45852483  0.44126165  0.91485908    -0.01600
Br4327     Br  0.48872418  0.35192247  0.89637777    -0.01500
Br4328     Br  0.49998622  0.38724915  0.86768942    -0.01500
C4329       C  0.36079324  0.39030942  0.76239324    -0.02600
C4330       C  0.37809391  0.38603167  0.77221845     0.07100
C4331       C  0.38343431  0.36670449  0.77554518    -0.02700
C4332       C  0.37074516  0.35194763  0.77051879    -0.02700
C4333       C  0.35199486  0.35663032  0.76354588     0.07200
C4334       C  0.34800115  0.37558089  0.75770885    -0.02900
Br4335     Br  0.32409279  0.38165709  0.74475743    -0.01500
Br4336     Br  0.35290863  0.41662632  0.75844315    -0.01600
Br4337     Br  0.37852976  0.32571477  0.77514539    -0.01500
Br4338     Br  0.40683389  0.36070054  0.78959987    -0.01500
C4339       C  0.44198517  0.36550364  0.75443180    -0.02600
C4340       C  0.45384272  0.37327132  0.76914347     0.07100
C4341       C  0.46939349  0.36127444  0.77587499    -0.02700
C4342       C  0.47095815  0.34156019  0.77056417    -0.02700
C4343       C  0.45799458  0.33346457  0.75735391     0.07200
C4344       C  0.44399203  0.34572703  0.74874963    -0.02900
Br4345     Br  0.42764108  0.33533932  0.72898743    -0.01500
Br4346     Br  0.42290705  0.38149741  0.74178047    -0.01600
Br4347     Br  0.49023788  0.32517822  0.78259559    -0.01500
Br4348     Br  0.48980704  0.37172719  0.79151804    -0.01500
C4349       C  0.36326148  0.47310470  0.74980310    -0.02600
C4350       C  0.37515512  0.48392173  0.76214328     0.07100
C4351       C  0.36775201  0.50220292  0.76870992    -0.02700
C4352       C  0.34765090  0.50668148  0.76813786    -0.02700
C4353       C  0.33509449  0.49431909  0.75834197     0.07200
C4354       C  0.34330319  0.47831361  0.74789401    -0.02900
Br4355     Br  0.32748338  0.46415193  0.73013832    -0.01500
Br4356     Br  0.37476368  0.45298154  0.73352094    -0.01600
Br4357     Br  0.33743159  0.52909622  0.78207428    -0.01500
Br4358     Br  0.38504651  0.52238875  0.77583049    -0.01500
C4359       C  0.48957661  0.48050008  0.89208001    -0.02600
C4360       C  0.47803456  0.49255157  0.88063462     0.07100
C4361       C  0.47048464  0.51003798  0.88870944    -0.02700
C4362       C  0.47198856  0.51404256  0.90858154    -0.02700
C4363       C  0.48081595  0.50029773  0.92055635     0.07200
C4364       C  0.49089292  0.48425817  0.91191541    -0.02900
Br4365     Br  0.50634244  0.46711810  0.92720895    -0.01500
Br4366     Br  0.50157336  0.45747484  0.88070962    -0.01600
Br4367     Br  0.46038909  0.53750468  0.91935947    -0.01500
Br4368     Br  0.45624199  0.52740113  0.87259023    -0.01500
C4369       C  0.37950676  0.49132858  0.91083878    -0.02600
C4370       C  0.35963896  0.49213397  0.90580835     0.07100
C4371       C  0.35361014  0.50308904  0.89008374    -0.02700
C4372       C  0.36774480  0.50915415  0.87724176    -0.02700
C4373       C  0.38734023  0.50371476  0.88016193     0.07200
C4374       C  0.39304492  0.49950563  0.89888695    -0.02900
Br4375     Br  0.42008995  0.50042221  0.90597852    -0.01500
Br4376     Br  0.38877821  0.47678730  0.93217168    -0.01600
Br4377     Br  0.36043740  0.52348779  0.85520067    -0.01500
Br4378     Br  0.32646544  0.50729534  0.88426757    -0.01500
C4379       C  0.30138157  0.36842286  0.88656966    -0.02600
C4380       C  0.28545252  0.36825174  0.89900177     0.07100
C4381       C  0.26688940  0.36570369  0.89147751    -0.02700
C4382       C  0.26333866  0.36882762  0.87222224    -0.02700
C4383       C  0.27916157  0.37016789  0.85948221     0.07200
C4384       C  0.29838676  0.37053875  0.86695021    -0.02900
Br4385     Br  0.32080612  0.37626782  0.85163626    -0.01500
Br4386     Br  0.32725767  0.36677318  0.89682103    -0.01600
Br4387     Br  0.23662861  0.37213936  0.86402697    -0.01500
Br4388     Br  0.24630118  0.35901273  0.90821952    -0.01500
C4389       C  0.37856574  0.38380303  0.00965552    -0.02600
C4390       C  0.37480845  0.36410331  0.00748391     0.07100
C4391       C  0.35660551  0.35789690  0.01394099    -0.02700
C4392       C  0.34066252  0.37099818  0.01404102    -0.02700
C4393       C  0.34392049  0.39054442  0.01148861     0.07200
C4394       C  0.36304449  0.39683390  0.01373911    -0.02900
Br4395     Br  0.36800036  0.42284310  0.02166193    -0.01500
Br4396     Br  0.40405191  0.39335916  0.00531987    -0.01600
Br4397     Br  0.31459089  0.36215323  0.01602074    -0.01500
Br4398     Br  0.35317390  0.33207438  0.02217504    -0.01500
C4399       C  0.25779115  0.49733110  0.85044510    -0.02600
C4400       C  0.26881231  0.49008562  0.83425086     0.07100
C4401       C  0.28629132  0.47933178  0.83802292    -0.02700
C4402       C  0.29146648  0.47456228  0.85692245    -0.02700
C4403       C  0.28011759  0.48124403  0.87275475     0.07200
C4404       C  0.26377367  0.49334157  0.86940308    -0.02900
Br4405     Br  0.24917403  0.50379154  0.89109233    -0.01500
Br4406     Br  0.23339575  0.51142622  0.84743155    -0.01600
Br4407     Br  0.31447148  0.45860710  0.86123017    -0.01500
Br4408     Br  0.30414525  0.47144755  0.81769701    -0.01500
C4409       C  0.23639192  0.36610868  0.96822608    -0.02600
C4410       C  0.24660160  0.37600108  0.98260983     0.07100
C4411       C  0.25197210  0.36621774  0.99912728    -0.02700
C4412       C  0.24944714  0.34627504  0.00019887    -0.02700
C4413       C  0.24186351  0.33579271  0.98446014     0.07200
C4414       C  0.23449493  0.34598452  0.96881481    -0.02900
Br4415     Br  0.22138278  0.33242687  0.94854172    -0.01500
Br4416     Br  0.22473142  0.38063803  0.94813198    -0.01600
Br4417     Br  0.25710868  0.33332287  0.02305879    -0.01500
Br4418     Br  0.26317895  0.38047931  0.02005617    -0.01500
C4419       C  0.36220050  0.48926221  0.99933659    -0.02600
C4420       C  0.35455720  0.49565600  0.98168812     0.07100
C4421       C  0.36744017  0.50502992  0.96946369    -0.02700
C4422       C  0.38777754  0.50454788  0.97306970    -0.02700
C4423       C  0.39542291  0.49443152  0.98864199     0.07200
C4424       C  0.38244069  0.48732536  0.00203174    -0.02900
Br4425     Br  0.39246408  0.47399235  0.02387841    -0.01500
Br4426     Br  0.34560051  0.48471761  0.02096411    -0.01600
Br4427     Br  0.40525490  0.51810282  0.95708435    -0.01500
Br4428     Br  0.35724447  0.52048226  0.94923083    -0.01500
C4429       C  0.00152036  0.78319893  0.86761575    -0.02600
C4430       C  0.98942919  0.77054960  0.87716907     0.07100
C4431       C  0.98613001  0.75218224  0.86914310    -0.02700
C4432       C  0.99137147  0.74800193  0.85019058    -0.02700
C4433       C  0.00078349  0.76187273  0.83977342     0.07200
C4434       C  0.00722550  0.77868127  0.84879610    -0.02900
Br4435     Br  0.02368648  0.79538148  0.83515601    -0.01500
Br4436     Br  0.00941512  0.80716926  0.87925263    -0.01600
Br4437     Br  0.98407581  0.72406610  0.83810680    -0.01500
Br4438     Br  0.97427340  0.73284124  0.88402890    -0.01500
C4439       C  0.87623902  0.73385005  0.95864616    -0.02600
C4440       C  0.88605516  0.73846317  0.97566597     0.07100
C4441       C  0.87600047  0.73779870  0.99308317    -0.02700
C4442       C  0.85575888  0.73558160  0.99327246    -0.02700
C4443       C  0.84540799  0.73470334  0.97591727     0.07200
C4444       C  0.85578040  0.73286527  0.95858198    -0.02900
Br4445     Br  0.84197330  0.72931732  0.93494872    -0.01500
Br4446     Br  0.89107819  0.72862336  0.93576919    -0.01600
Br4447     Br  0.84224630  0.73482621  0.01736348    -0.01500
Br4448     Br  0.89023997  0.74058577  0.01655474    -0.01500
C4449       C  0.99993500  0.86201650  0.98927542    -0.02600
C4450       C  0.00086867  0.85486723  0.97027492     0.07100
C4451       C  0.00772652  0.86676049  0.95588753    -0.02700
C4452       C  0.00838387  0.88665549  0.95963083    -0.02700
C4453       C  0.00290602  0.89411549  0.97776847     0.07200
C4454       C  0.00030240  0.88179750  0.99296140    -0.02900
Br4455     Br  0.99546360  0.89213204  0.01843918    -0.01500
Br4456     Br  0.99607868  0.84479433  0.00988858    -0.01600
Br4457     Br  0.01574803  0.90383554  0.93998090    -0.01500
Br4458     Br  0.01541565  0.85627535  0.93110708    -0.01500
C4459       C  0.96565305  0.86008065  0.84936010    -0.02600
C4460       C  0.96746234  0.87986510  0.85335102     0.07100
C4461       C  0.97310700  0.88603824  0.87172235    -0.02700
C4462       C  0.97387888  0.87308988  0.88669979    -0.02700
C4463       C  0.97097048  0.85343387  0.88300790     0.07200
C4464       C  0.96776564  0.84684960  0.86408092    -0.02900
Br4465     Br  0.96269399  0.82016768  0.85892617    -0.01500
Br4466     Br  0.95819761  0.85141875  0.82410024    -0.01600
Br4467     Br  0.97466986  0.88298473  0.91267714    -0.01500
Br4468     Br  0.97749728  0.91256769  0.87702293    -0.01500
C4469       C  0.86105283  0.00011751  0.74877751    -0.02600
C4470       C  0.87382154  0.98663228  0.73941686     0.07100
C4471       C  0.86707964  0.97660162  0.72308281    -0.02700
C4472       C  0.84717287  0.97791951  0.71793267    -0.02700
C4473       C  0.83385186  0.98918307  0.72928766     0.07200
C4474       C  0.84123462  0.00148296  0.74364608    -0.02900
Br4475     Br  0.82409567  0.02016479  0.75639335    -0.01500
Br4476     Br  0.87017674  0.01444784  0.77073096    -0.01600
Br4477     Br  0.83796902  0.96290491  0.69648103    -0.01500
Br4478     Br  0.88470556  0.95868328  0.70978943    -0.01500
C4479       C  0.99973440  0.84754594  0.75328822    -0.02600
C4480       C  0.00758354  0.83716804  0.76850833     0.07100
C4481       C  0.01046913  0.84691102  0.78609969    -0.02700
C4482       C  0.00251892  0.86572980  0.78953096    -0.02700
C4483       C  0.99196998  0.87520248  0.77498743     0.07200
C4484       C  0.99233767  0.86653615  0.75637890    -0.02900
Br4485     Br  0.98278522  0.88056554  0.73480459    -0.01500
Br4486     Br  0.99812923  0.83532172  0.72833677    -0.01600
Br4487     Br  0.00551439  0.87757572  0.81449089    -0.01500
Br4488     Br  0.02599324  0.83449823  0.80513875    -0.01500
C4489       C  0.98437880  0.95987598  0.87875192    -0.02600
C4490       C  0.96484792  0.95754875  0.87335830     0.07100
C4491       C  0.95033896  0.95716250  0.88777073    -0.02700
C4492       C  0.95492654  0.96111287  0.90690427    -0.02700
C4493       C  0.97447406  0.96280535  0.91239869     0.07200
C4494       C  0.98925596  0.96168009  0.89827217    -0.02900
Br4495     Br  0.01624630  0.96169152  0.90553876    -0.01500
Br4496     Br  0.00444023  0.96063717  0.85955445    -0.01600
Br4497     Br  0.93394931  0.96594014  0.92516569    -0.01500
Br4498     Br  0.92424592  0.94941378  0.88207780    -0.01500
C4499       C  0.87244780  0.88324567  0.97249976    -0.02600
C4500       C  0.85352368  0.87742099  0.96827156     0.07100
C4501       C  0.84704052  0.85992580  0.97491651    -0.02700
C4502       C  0.85954440  0.84828678  0.98569512    -0.02700
C4503       C  0.87939107  0.85249819  0.98703921     0.07200
C4504       C  0.88504444  0.87122663  0.98287870    -0.02900
Br4505     Br  0.91010982  0.88033257  0.99041219    -0.01500
Br4506     Br  0.88235568  0.90576457  0.96094974    -0.01600
Br4507     Br  0.85020064  0.82548208  0.99702356    -0.01500
Br4508     Br  0.82315968  0.84969625  0.96545997    -0.01500
C4509       C  0.82819022  0.97934098  0.83213080    -0.02600
C4510       C  0.83478132  0.98218686  0.85132197     0.07100
C4511       C  0.84857121  0.99663338  0.85476782    -0.02700
C4512       C  0.85928853  0.00315269  0.83926793    -0.02700
C4513       C  0.85715162  0.99404033  0.82132695     0.07200
C4514       C  0.83893035  0.98671551  0.81718942    -0.02900
Br4515     Br  0.83124415  0.98299330  0.79098080    -0.01500
Br4516     Br  0.80601380  0.96437556  0.82496214    -0.01600
Br4517     Br  0.87881819  0.02211207  0.84256511    -0.01500
Br4518     Br  0.85358460  0.00736971  0.87988619    -0.01500
C4519       C  0.73656052  0.96270159  0.84406523    -0.02600
C4520       C  0.75123108  0.97325974  0.85312911     0.07100
C4521       C  0.76106609  0.98691270  0.84272849    -0.02700
C4522       C  0.75824325  0.98818785  0.82292738    -0.02700
C4523       C  0.74463039  0.97655947  0.81347589     0.07200
C4524       C  0.73290571  0.96469222  0.82435806    -0.02900
Br4525     Br  0.71365668  0.94929350  0.81191700    -0.01500
Br4526     Br  0.72379711  0.94329358  0.85808450    -0.01600
Br4527     Br  0.77384831  0.00537835  0.80877075    -0.01500
Br4528     Br  0.78021792  0.00226047  0.85548984    -0.01500
C4529       C  0.74920952  0.86111089  0.96387918    -0.02600
C4530       C  0.76616382  0.87056177  0.96992265     0.07100
C4531       C  0.77775521  0.86162764  0.98395276    -0.02700
C4532       C  0.77524195  0.84200546  0.98796347    -0.02700
C4533       C  0.76047960  0.83155953  0.97877105     0.07200
C4534       C  0.74680713  0.84159503  0.96756646    -0.02900
Br4535     Br  0.72551190  0.82841131  0.95575731    -0.01500
Br4536     Br  0.72837653  0.87518140  0.95161121    -0.01600
Br4537     Br  0.79179900  0.82947165  0.00624114    -0.01500
Br4538     Br  0.79585309  0.87641867  0.99874316    -0.01500
C4539       C  0.86672542  0.98228142  0.96925172    -0.02600
C4540       C  0.85913139  0.96424442  0.97350549     0.07100
C4541       C  0.87012143  0.95226631  0.98558408    -0.02700
C4542       C  0.88984181  0.95621194  0.98949609    -0.02700
C4543       C  0.89857178  0.97239971  0.98172687     0.07200
C4544       C  0.88645227  0.98607460  0.97266747    -0.02900
Br4545     Br  0.89690430  0.00945814  0.96352732    -0.01500
Br4546     Br  0.84974902  0.00210730  0.95917504    -0.01600
Br4547     Br  0.90464100  0.93984571  0.00617948    -0.01500
Br4548     Br  0.85796186  0.93125701  0.99765367    -0.01500
C4549       C  0.83956865  0.89354867  0.74579009    -0.02600
C4550       C  0.84625325  0.87402120  0.74636274     0.07100
C4551       C  0.86312725  0.86834095  0.73543500    -0.02700
C4552       C  0.87585097  0.88247023  0.72982174    -0.02700
C4553       C  0.87163856  0.90157313  0.73553548     0.07200
C4554       C  0.85200409  0.90703123  0.73852305    -0.02900
Br4555     Br  0.84394277  0.93369904  0.73767450    -0.01500
Br4556     Br  0.81511709  0.90325435  0.75671249    -0.01600
Br4557     Br  0.89981534  0.87586311  0.71643796    -0.01500
Br4558     Br  0.86972932  0.84188147  0.72852989    -0.01500
C4559       C  0.83596711  0.78267755  0.88926565    -0.02600
C4560       C  0.84189044  0.77516307  0.87125725     0.07100
C4561       C  0.85610095  0.76010775  0.87012537    -0.02700
C4562       C  0.86646038  0.75523108  0.88661420    -0.02700
C4563       C  0.86397611  0.76666167  0.90352695     0.07200
C4564       C  0.84703065  0.77857620  0.90540456    -0.02900
Br4565     Br  0.83928655  0.79097267  0.92914149    -0.01500
Br4566     Br  0.81339468  0.79967727  0.89182448    -0.01600
Br4567     Br  0.88469845  0.73357926  0.88569813    -0.01500
Br4568     Br  0.86336396  0.74771653  0.84603147    -0.01500
C4569       C  0.74386388  0.89616771  0.81288109    -0.02600
C4570       C  0.73819676  0.87732731  0.81487209     0.07100
C4571       C  0.72881973  0.87370866  0.83205995    -0.02700
C4572       C  0.73608314  0.88221736  0.84890871    -0.02700
C4573       C  0.74936104  0.89735395  0.84730319     0.07200
C4574       C  0.75150067  0.90560842  0.82897214    -0.02900
Br4575     Br  0.76625532  0.92809779  0.82447351    -0.01500
Br4576     Br  0.74658586  0.90583501  0.78766696    -0.01600
Br4577     Br  0.72937520  0.87111444  0.87281301    -0.01500
Br4578     Br  0.70909953  0.85484965  0.83214813    -0.01500
C4579       C  0.78117576  0.87923932  0.72483144    -0.02600
C4580       C  0.76843378  0.86809732  0.73529301     0.07100
C4581       C  0.74992410  0.87603201  0.74024652    -0.02700
C4582       C  0.74527424  0.89554157  0.73704377    -0.02700
C4583       C  0.75965155  0.90758846  0.73008447     0.07200
C4584       C  0.77714756  0.89908952  0.72275004    -0.02900
Br4585     Br  0.79553135  0.91458048  0.70990255    -0.01500
Br4586     Br  0.80489517  0.86726063  0.71491882    -0.01600
Br4587     Br  0.71957399  0.90586747  0.74335721    -0.01500
Br4588     Br  0.73206952  0.86073580  0.75398433    -0.01500
C4589       C  0.88635731  0.75037675  0.78351392    -0.02600
C4590       C  0.88205256  0.76465451  0.79761383     0.07100
C4591       C  0.89731875  0.77192376  0.80877345    -0.02700
C4592       C  0.91685034  0.76596246  0.80501245    -0.02700
C4593       C  0.92152002  0.75309313  0.78941798     0.07200
C4594       C  0.90588760  0.74456586  0.77938324    -0.02900
Br4595     Br  0.91055664  0.72623094  0.75856417    -0.01500
Br4596     Br  0.86540600  0.74041552  0.76835764    -0.01600
Br4597     Br  0.93693878  0.77564601  0.82157272    -0.01500
Br4598     Br  0.89136244  0.79121523  0.82852967    -0.01500
C4599       C  0.76691649  0.77872799  0.89966310    -0.02600
C4600       C  0.77148317  0.75983150  0.90492782     0.07100
C4601       C  0.77743348  0.74611275  0.89065423    -0.02700
C4602       C  0.77836671  0.75116642  0.87120913    -0.02700
C4603       C  0.77430445  0.77032996  0.86585140     0.07200
C4604       C  0.76884739  0.78413050  0.88054359    -0.02900
Br4605     Br  0.76630005  0.81129441  0.87593232    -0.01500
Br4606     Br  0.75786318  0.79748224  0.91892854    -0.01600
Br4607     Br  0.78458434  0.73150986  0.85199828    -0.01500
Br4608     Br  0.78562959  0.72068856  0.89798280    -0.01500
loop_ 
_geom_bond_atom_site_label_1 
_geom_bond_atom_site_label_2 
_geom_bond_distance 
_geom_bond_site_symmetry_2 
_ccdc_geom_bond_type 
Zr1           O2   2.433       .  S
Zr1           O3   2.395       .  S
Zr1           O4   2.493       .  S
Zr1           O7   2.484       .  S
Zr1           O9   2.376       .  S
Zr1          O10   2.393       .  S
Zr1          O11   2.419       .  S
Zr1          O12   2.432       .  S
O2           H58   0.990       .  S
O2           H66   0.990       .  S
O3           C23   1.278       .  A
O4           C25   1.296       .  A
O5          Zr15   2.452       .  S
O5           C24   1.287       .  A
O6          Zr14   2.395       .  S
O6           C25   1.278       .  A
O7           C24   1.294       .  A
O8          Zr16   2.436       .  S
O8           C23   1.287       .  A
O9          Zr14   2.372       .  S
O9          Zr16   2.362       .  S
O10         Zr15   2.385       .  S
O10         Zr16   2.342       .  S
O10          H45   0.956       .  S
O11         Zr14   2.396       .  S
O11         Zr31   2.427       .  S
O11          H48   0.964       .  S
O12         Zr15   2.385       .  S
O12         Zr31   2.440       .  S
Zr13         O38   2.439       .  S
Zr13         O32   2.352       .  S
Zr13         O40   2.416       .  S
Zr13         O28   2.421       .  S
Zr13         O19   2.386       .  S
Zr13         O20   2.385       .  S
Zr13         O21   2.362       .  S
Zr13         O22   2.380       .  S
Zr14         O33   2.439       .  S
Zr14         O26   2.436       .  S
Zr14         O27   2.405       .  S
Zr14         O20   2.395       .  S
Zr14         O21   2.370       .  S
Zr15         O17   2.432       .  S
Zr15         O39   2.438       .  S
Zr15         O41   2.429       .  S
Zr15         O19   2.414       .  S
Zr15         O22   2.370       .  S
Zr16         O42   2.434       .  S
Zr16         O43   2.438       .  S
Zr16         O18   2.437       .  S
Zr16         O19   2.402       .  S
Zr16         O20   2.379       .  S
O17          H54   0.991       .  S
O18          H49   0.989       .  S
O18          H63   0.990       .  S
O20          H46   0.967       .  S
O21         Zr31   2.346       .  S
O22         Zr31   2.355       .  S
O22          H47   0.965       .  S
C23        C4560   1.470       .  S
C24        C4603   1.511       .  S
C25        C4590   1.488       .  S
O26          H62   0.990       .  S
O27          C29   1.278       .  A
O28          C29   1.281       .  A
C29        C4550   1.487       .  S
O30         Zr31   2.435       .  S
O30          H59   0.989       .  S
Zr31         O34   2.436       .  S
Zr31         O35   2.439       .  S
Zr31         O36   2.512       .  S
O32          C37   1.271       .  A
O33          H50   0.989       .  S
O33          H65   0.990       .  S
O34          H51   0.990       .  S
O35          H55   0.990       .  S
O35          H64   0.990       .  S
O36          C37   1.299       .  A
C37        C4580   1.477       .  S
O38          H57   0.990       .  S
O38          H61   0.990       .  S
O39          H53   0.988       .  S
O39          H60   0.990       .  S
O40          C44   1.285       .  A
O41          C44   1.283       .  A
O42          H52   0.990       .  S
O43          H56   0.989       .  S
C44        C4570   1.487       .  S
Zr67         O68   2.435       .  S
Zr67         O69   2.430       .  S
Zr67         O70   2.500       .  S
Zr67         O73   2.504       .  S
Zr67         O75   2.382       .  S
Zr67         O76   2.386       .  S
Zr67         O77   2.426       .  S
Zr67         O78   2.420       .  S
O68         H124   0.990       .  S
O68         H132   0.990       .  S
O69          C89   1.283       .  A
O70          C91   1.298       .  A
O71         Zr81   2.393       .  S
O71          C90   1.279       .  A
O72         Zr80   2.403       .  S
O72          C91   1.281       .  A
O73          C90   1.299       .  A
O74         Zr82   2.411       .  S
O74          C89   1.279       .  A
O75         Zr80   2.396       .  S
O75         Zr82   2.369       .  S
O76         Zr81   2.394       .  S
O76         Zr82   2.374       .  S
O76         H111   0.964       .  S
O77         Zr80   2.404       .  S
O77         Zr97   2.409       .  S
O77         H114   0.968       .  S
O78         Zr81   2.401       .  S
O78         Zr97   2.416       .  S
Zr79        O104   2.438       .  S
Zr79         O98   2.371       .  S
Zr79        O106   2.393       .  S
Zr79         O94   2.391       .  S
Zr79         O85   2.375       .  S
Zr79         O86   2.378       .  S
Zr79         O87   2.372       .  S
Zr79         O88   2.371       .  S
Zr80         O99   2.435       .  S
Zr80         O92   2.434       .  S
Zr80         O93   2.449       .  S
Zr80         O86   2.388       .  S
Zr80         O87   2.360       .  S
Zr81         O83   2.431       .  S
Zr81        O105   2.437       .  S
Zr81        O107   2.444       .  S
Zr81         O85   2.387       .  S
Zr81         O88   2.365       .  S
Zr82        O108   2.435       .  S
Zr82        O109   2.434       .  S
Zr82         O84   2.438       .  S
Zr82         O85   2.399       .  S
Zr82         O86   2.386       .  S
O83         H120   0.990       .  S
O84         H115   0.990       .  S
O84         H129   0.990       .  S
O86         H112   0.964       .  S
O87         Zr97   2.363       .  S
O88         Zr97   2.361       .  S
O88         H113   0.967       .  S
C89        C4500   1.463       .  S
C90        C4540   1.506       .  S
C91        C4530   1.511       .  S
O92         H128   0.990       .  S
O93          C95   1.285       .  A
O94          C95   1.275       .  A
C95        C4573   1.490       .  S
O96         Zr97   2.435       .  S
O96         H125   0.990       .  S
Zr97        O100   2.436       .  S
Zr97        O101   2.440       .  S
Zr97        O102   2.487       .  S
O98         C103   1.273       .  A
O99         H116   0.991       .  S
O99         H131   0.988       .  S
O100        H117   0.989       .  S
O101        H121   0.991       .  S
O101        H130   0.989       .  S
O102        C103   1.294       .  A
C103       C4520   1.474       .  S
O104        H123   0.990       .  S
O104        H127   0.990       .  S
O105        H119   0.990       .  S
O105        H126   0.990       .  S
O106        C110   1.274       .  A
O107        C110   1.285       .  A
O108        H118   0.989       .  S
O109        H122   0.990       .  S
C110       C4510   1.493       .  S
Zr133       O134   2.435       .  S
Zr133       O135   2.453       .  S
Zr133       O136   2.480       .  S
Zr133       O139   2.480       .  S
Zr133       O141   2.369       .  S
Zr133       O142   2.383       .  S
Zr133       O143   2.444       .  S
Zr133       O144   2.434       .  S
O134        H190   0.990   1_655  S
O134        H198   0.991       .  S
O135        C155   1.288       .  A
O136        C157   1.294       .  A
O137       Zr147   2.429       .  S
O137        C156   1.284       .  A
O138       Zr146   2.394       .  S
O138        C157   1.277       .  A
O139        C156   1.294       .  A
O140       Zr148   2.419       .  S
O140        C155   1.283       .  A
O141       Zr146   2.385       .  S
O141       Zr148   2.365       .  S
O142       Zr147   2.386       .  S
O142       Zr148   2.372       .  S
O142        H177   0.963       .  S
O143       Zr146   2.391       .  S
O143       Zr163   2.439       .  S
O143        H180   0.968       .  S
O144       Zr147   2.385       .  S
O144       Zr163   2.436       .  S
Zr145       O170   2.439       .  S
Zr145       O164   2.349       .  S
Zr145       O172   2.390       .  S
Zr145       O160   2.409       .  S
Zr145       O151   2.381       .  S
Zr145       O152   2.375       .  S
Zr145       O153   2.369       .  S
Zr145       O154   2.373       .  S
Zr146       O165   2.436       .  S
Zr146       O158   2.435       .  S
Zr146       O159   2.412       .  S
Zr146       O152   2.397       .  S
Zr146       O153   2.364       .  S
Zr147       O149   2.436       .  S
Zr147       O171   2.436       .  S
Zr147       O173   2.428       .  S
Zr147       O151   2.400       .  S
Zr147       O154   2.372       .  S
Zr148       O174   2.437       .  S
Zr148       O175   2.442       .  S
Zr148       O150   2.435       .  S
Zr148       O151   2.381       .  S
Zr148       O152   2.393       .  S
O149        H186   0.990       .  S
O150        H181   0.990       .  S
O150        H195   0.990       .  S
O152        H178   0.964       .  S
O153       Zr163   2.357       .  S
O154       Zr163   2.350       .  S
O154        H179   0.966       .  S
C155       C4460   1.480       .  S
C156       C4483   1.509       .  S
C157       C4490   1.488       .  S
O158        H194   0.990       .  S
O159        C161   1.280       .  A
O160        C161   1.282       .  A
C161       C4513   1.483       .  S
O162       Zr163   2.435       .  S
O162        H191   0.991       .  S
Zr163       O166   2.436   1_565  S
Zr163       O167   2.441       .  S
Zr163       O168   2.519       .  S
O164        C169   1.269       .  A
O165        H182   0.991   1_565  S
O165        H197   0.990       .  S
O166        H183   0.990       .  S
O167        H187   0.990       .  S
O167        H196   0.990       .  S
O168        C169   1.300       .  A
C169       C4470   1.480       .  S
O170        H189   0.990       .  S
O170        H193   0.990       .  S
O171        H185   0.991       .  S
O171        H192   0.989       .  S
O172        C176   1.280       .  A
O173        C176   1.284       .  A
O174        H184   0.990       .  S
O175        H188   0.990       .  S
C176       C4553   1.480       .  S
Zr199       O200   2.435       .  S
Zr199       O201   2.401       .  S
Zr199       O202   2.453       .  S
Zr199       O205   2.437       .  S
Zr199       O207   2.381       .  S
Zr199       O208   2.398       .  S
Zr199       O209   2.410       .  S
Zr199       O210   2.375       .  S
O200        H256   0.990       .  S
O200        H264   0.989       .  S
O201        C221   1.268       .  A
O202        C223   1.287       .  A
O203       Zr213   2.455       .  S
O203        C222   1.286       .  A
O204       Zr212   2.405       .  S
O204        C223   1.280       .  A
O205        C222   1.288       .  A
O206       Zr214   2.466       .  S
O206        C221   1.283       .  A
O207       Zr212   2.378       .  S
O207       Zr214   2.371       .  S
O208       Zr213   2.387       .  S
O208       Zr214   2.391       .  S
O208        H243   0.968       .  S
O209       Zr212   2.402       .  S
O209       Zr229   2.378       .  S
O209        H246   0.962       .  S
O210       Zr213   2.376       .  S
O210       Zr229   2.361       .  S
Zr211       O236   2.440   1_655  S
Zr211       O230   2.472       .  S
Zr211       O238   2.409       .  S
Zr211       O226   2.397       .  S
Zr211       O217   2.414       .  S
Zr211       O218   2.418       .  S
Zr211       O219   2.376       .  S
Zr211       O220   2.384       .  S
Zr212       O231   2.440       .  S
Zr212       O224   2.434       .  S
Zr212       O225   2.416       .  S
Zr212       O218   2.394       .  S
Zr212       O219   2.377       .  S
Zr213       O215   2.440   1_556  S
Zr213       O237   2.441   1_556  S
Zr213       O239   2.423       .  S
Zr213       O217   2.384       .  S
Zr213       O220   2.405       .  S
Zr214       O240   2.437       .  S
Zr214       O241   2.436       .  S
Zr214       O216   2.435       .  S
Zr214       O217   2.423       .  S
Zr214       O218   2.406       .  S
O215        H252   0.991       .  S
O216        H247   0.990       .  S
O216        H261   0.990       .  S
O218        H244   0.964       .  S
O219       Zr229   2.371       .  S
O220       Zr229   2.376       .  S
O220        H245   0.965       .  S
C221       C4440   1.477       .  S
C222       C4503   1.484       .  S
C223       C4563   1.487       .  S
O224        H260   0.991       .  S
O225        C227   1.283       .  A
O226        C227   1.275       .  A
C227       C4430   1.463       .  S
O228       Zr229   2.435       .  S
O228        H257   0.990       .  S
Zr229       O232   2.437       .  S
Zr229       O233   2.438       .  S
Zr229       O234   2.388       .  S
O230        C235   1.290       .  A
O231        H248   0.990       .  S
O231        H263   0.990       .  S
O232        H249   0.990       .  S
O233        H253   0.989       .  S
O233        H262   0.990       .  S
O234        C235   1.275       .  A
C235       C4463   1.472       .  S
O236        H255   0.990       .  S
O236        H259   0.990       .  S
O237        H251   0.988       .  S
O237        H258   0.990       .  S
O238        C242   1.277       .  A
O239        C242   1.284       .  A
O240        H250   0.990       .  S
O241        H254   0.990       .  S
C242       C4450   1.474   1_655  S
Zr265       O266   2.433       .  S
Zr265       O267   2.401       .  S
Zr265       O268   2.504       .  S
Zr265       O271   2.511       .  S
Zr265       O273   2.374       .  S
Zr265       O274   2.383       .  S
Zr265       O275   2.432       .  S
Zr265       O276   2.427       .  S
O266        H322   0.990       .  S
O266        H330   0.990       .  S
O267        C287   1.280       .  A
O268        C289   1.292       .  A
O269       Zr279   2.424       .  S
O269        C288   1.283       .  A
O270       Zr278   2.405       .  S
O270        C289   1.271       .  A
O271        C288   1.301       .  A
O272       Zr280   2.430       .  S
O272        C287   1.285       .  A
O273       Zr278   2.379       .  S
O273       Zr280   2.359       .  S
O274       Zr279   2.379       .  S
O274       Zr280   2.365       .  S
O274        H309   0.966       .  S
O275       Zr278   2.395       .  S
O275       Zr295   2.423       .  S
O275        H312   0.965       .  S
O276       Zr279   2.386       .  S
O276       Zr295   2.429       .  S
Zr277       O302   2.442       .  S
Zr277       O296   2.390       .  S
Zr277       O304   2.435       .  S
Zr277       O292   2.454       .  S
Zr277       O283   2.405       .  S
Zr277       O284   2.394       .  S
Zr277       O285   2.380       .  S
Zr277       O286   2.392       .  S
Zr278       O297   2.437   1_556  S
Zr278       O290   2.430       .  S
Zr278       O291   2.403   1_556  S
Zr278       O284   2.402       .  S
Zr278       O285   2.384       .  S
Zr279       O281   2.434       .  S
Zr279       O303   2.437       .  S
Zr279       O305   2.395       .  S
Zr279       O283   2.399       .  S
Zr279       O286   2.385       .  S
Zr280       O306   2.435       .  S
Zr280       O307   2.437       .  S
Zr280       O282   2.438       .  S
Zr280       O283   2.380       .  S
Zr280       O284   2.396       .  S
O281        H318   0.989       .  S
O282        H313   0.990       .  S
O282        H327   0.991       .  S
O284        H310   0.964       .  S
O285       Zr295   2.374       .  S
O286       Zr295   2.350       .  S
O286        H311   0.960       .  S
C287       C4370   1.469       .  S
C288       C4403   1.506       .  S
C289       C4420   1.518       .  S
O290        H326   0.989       .  S
O291        C293   1.278   1_554  A
O292        C293   1.289       .  A
C293       C4393   1.478   1_556  S
O294       Zr295   2.436       .  S
O294        H323   0.990       .  S
Zr295       O298   2.435   1_556  S
Zr295       O299   2.438       .  S
Zr295       O300   2.495       .  S
O296        C301   1.275       .  A
O297        H314   0.991       .  S
O297        H329   0.990       .  S
O298        H315   0.990       .  S
O299        H319   0.990       .  S
O299        H328   0.990       .  S
O300        C301   1.295       .  A
C301       C4410   1.482       .  S
O302        H321   0.990       .  S
O302        H325   0.991       .  S
O303        H317   0.988       .  S
O303        H324   0.991       .  S
O304        C308   1.282       .  A
O305        C308   1.274       .  A
O306        H316   0.990       .  S
O307        H320   0.990       .  S
C308       C4380   1.460       .  S
Zr331       O332   2.434       .  S
Zr331       O333   2.455       .  S
Zr331       O334   2.500       .  S
Zr331       O337   2.478       .  S
Zr331       O339   2.373       .  S
Zr331       O340   2.402       .  S
Zr331       O341   2.432       .  S
Zr331       O342   2.433       .  S
O332        H388   0.991       .  S
O332        H396   0.990       .  S
O333        C353   1.288       .  A
O334        C355   1.297       .  A
O335       Zr345   2.410       .  S
O335        C354   1.274       .  A
O336       Zr344   2.420       .  S
O336        C355   1.282       .  A
O337        C354   1.290       .  A
O338       Zr346   2.407       .  S
O338        C353   1.279       .  A
O339       Zr344   2.383       .  S
O339       Zr346   2.375       .  S
O340       Zr345   2.404       .  S
O340       Zr346   2.371       .  S
O340        H375   0.964       .  S
O341       Zr344   2.401       .  S
O341       Zr361   2.436       .  S
O341        H378   0.965       .  S
O342       Zr345   2.400       .  S
O342       Zr361   2.419       .  S
Zr343       O368   2.439       .  S
Zr343       O362   2.370       .  S
Zr343       O370   2.386       .  S
Zr343       O358   2.391       .  S
Zr343       O349   2.377       .  S
Zr343       O350   2.379       .  S
Zr343       O351   2.370       .  S
Zr343       O352   2.367       .  S
Zr344       O363   2.439       .  S
Zr344       O356   2.434       .  S
Zr344       O357   2.428       .  S
Zr344       O350   2.397       .  S
Zr344       O351   2.382       .  S
Zr345       O347   2.434       .  S
Zr345       O369   2.437       .  S
Zr345       O371   2.442       .  S
Zr345       O349   2.392       .  S
Zr345       O352   2.379       .  S
Zr346       O372   2.437       .  S
Zr346       O373   2.436       .  S
Zr346       O348   2.436       .  S
Zr346       O349   2.385       .  S
Zr346       O350   2.389       .  S
O347        H384   0.989       .  S
O348        H379   0.991       .  S
O348        H393   0.989       .  S
O350        H376   0.966       .  S
O351       Zr361   2.357       .  S
O352       Zr361   2.361       .  S
O352        H377   0.964       .  S
C353       C4330   1.477       .  S
C354       C4350   1.509       .  S
C355       C4340   1.525       .  S
O356        H392   0.990       .  S
O357        C359   1.283       .  A
O358        C359   1.277       .  A
C359       C4320   1.484       .  S
O360       Zr361   2.435       .  S
O360        H389   0.989       .  S
Zr361       O364   2.435       .  S
Zr361       O365   2.438       .  S
Zr361       O366   2.506       .  S
O362        C367   1.272       .  A
O363        H380   0.989       .  S
O363        H395   0.990       .  S
O364        H381   0.990       .  S
O365        H385   0.990       .  S
O365        H394   0.990       .  S
O366        C367   1.296       .  A
C367       C4360   1.483       .  S
O368        H387   0.990       .  S
O368        H391   0.990       .  S
O369        H383   0.990       .  S
O369        H390   0.990       .  S
O370        C374   1.278       .  A
O371        C374   1.284       .  A
O372        H382   0.991       .  S
O373        H386   0.989       .  S
C374       C4373   1.486       .  S
Zr397       O398   2.435       .  S
Zr397       O399   2.444       .  S
Zr397       O400   2.509       .  S
Zr397       O403   2.509       .  S
Zr397       O405   2.392       .  S
Zr397       O406   2.381       .  S
Zr397       O407   2.442       .  S
Zr397       O408   2.429       .  S
O398        H454   0.989       .  S
O398        H462   0.991       .  S
O399        C419   1.284       .  A
O400        C421   1.298       .  A
O401       Zr411   2.421       .  S
O401        C420   1.281       .  A
O402       Zr410   2.402       .  S
O402        C421   1.275       .  A
O403        C420   1.300       .  A
O404       Zr412   2.415       .  S
O404        C419   1.282       .  A
O405       Zr410   2.410       .  S
O405       Zr412   2.357       .  S
O406       Zr411   2.378       .  S
O406       Zr412   2.368       .  S
O406        H441   0.948       .  S
O407       Zr410   2.415       .  S
O407       Zr427   2.423       .  S
O407        H444   0.963       .  S
O408       Zr411   2.394       .  S
O408       Zr427   2.416       .  S
Zr409       O434   2.442       .  S
Zr409       O428   2.409       .  S
Zr409       O436   2.416       .  S
Zr409       O424   2.426       .  S
Zr409       O415   2.405       .  S
Zr409       O416   2.401       .  S
Zr409       O417   2.378       .  S
Zr409       O418   2.402       .  S
Zr410       O429   2.436       .  S
Zr410       O422   2.437       .  S
Zr410       O423   2.460       .  S
Zr410       O416   2.389       .  S
Zr410       O417   2.385       .  S
Zr411       O413   2.437       .  S
Zr411       O435   2.436       .  S
Zr411       O437   2.427       .  S
Zr411       O415   2.399       .  S
Zr411       O418   2.384       .  S
Zr412       O438   2.436       .  S
Zr412       O439   2.434       .  S
Zr412       O414   2.435       .  S
Zr412       O415   2.365       .  S
Zr412       O416   2.390       .  S
O413        H450   0.991       .  S
O414        H445   0.990       .  S
O414        H459   0.989       .  S
O416        H442   0.967       .  S
O417       Zr427   2.392       .  S
O418       Zr427   2.365       .  S
O418        H443   0.965       .  S
C419       C4280   1.470       .  S
C420       C4313   1.526       .  S
C421       C4290   1.502       .  S
O422        H458   0.990       .  S
O423        C425   1.288       .  A
O424        C425   1.282       .  A
C425       C4333   1.491       .  S
O426       Zr427   2.439       .  S
O426        H455   0.990       .  S
Zr427       O430   2.436       .  S
Zr427       O431   2.438       .  S
Zr427       O432   2.476       .  S
O428        C433   1.278       .  A
O429        H446   0.991       .  S
O429        H461   0.989       .  S
O430        H447   0.991       .  S
O431        H451   0.989       .  S
O431        H460   0.990       .  S
O432        C433   1.290       .  A
C433       C4300   1.482       .  S
O434        H453   0.990       .  S
O434        H457   0.991       .  S
O435        H449   0.991       .  S
O435        H456   0.988       .  S
O436        C440   1.272       .  A
O437        C440   1.272       .  A
O438        H448   0.991       .  S
O439        H452   0.990       .  S
C440       C4383   1.479       .  S
Zr463       O464   2.434       .  S
Zr463       O465   2.425       .  S
Zr463       O466   2.494       .  S
Zr463       O469   2.496       .  S
Zr463       O471   2.375       .  S
Zr463       O472   2.382       .  S
Zr463       O473   2.434       .  S
Zr463       O474   2.430       .  S
O464        H520   0.990       .  S
O464        H528   0.991       .  S
O465        C485   1.283       .  A
O466        C487   1.295       .  A
O467       Zr477   2.420       .  S
O467        C486   1.282       .  A
O468       Zr476   2.381       .  S
O468        C487   1.276       .  A
O469        C486   1.297       .  A
O470       Zr478   2.428       .  S
O470        C485   1.285       .  A
O471       Zr476   2.372       .  S
O471       Zr478   2.369       .  S
O472       Zr477   2.386       .  S
O472       Zr478   2.353       .  S
O472        H507   0.964       .  S
O473       Zr476   2.391       .  S
O473       Zr493   2.430       .  S
O473        H510   0.966       .  S
O474       Zr477   2.394       .  S
O474       Zr493   2.438       .  S
Zr475       O500   2.436       .  S
Zr475       O494   2.348       .  S
Zr475       O502   2.440       .  S
Zr475       O490   2.437       .  S
Zr475       O481   2.387       .  S
Zr475       O482   2.385       .  S
Zr475       O483   2.379       .  S
Zr475       O484   2.378       .  S
Zr476       O495   2.437   1_556  S
Zr476       O488   2.434       .  S
Zr476       O489   2.399       .  S
Zr476       O482   2.393       .  S
Zr476       O483   2.370       .  S
Zr477       O479   2.433       .  S
Zr477       O501   2.440       .  S
Zr477       O503   2.418       .  S
Zr477       O481   2.391       .  S
Zr477       O484   2.379       .  S
Zr478       O504   2.435       .  S
Zr478       O505   2.432       .  S
Zr478       O480   2.436       .  S
Zr478       O481   2.387       .  S
Zr478       O482   2.382       .  S
O479        H516   0.990       .  S
O480        H511   0.990       .  S
O480        H525   0.990       .  S
O482        H508   0.962       .  S
O483       Zr493   2.361       .  S
O484       Zr493   2.340       .  S
O484        H509   0.963       .  S
C485       C4283   1.479       .  S
C486       C4253   1.494       .  S
C487       C4260   1.499       .  S
O488        H524   0.990       .  S
O489        C491   1.277       .  A
O490        C491   1.287       .  A
C491       C4390   1.483   1_556  S
O492       Zr493   2.435       .  S
O492        H521   0.990       .  S
Zr493       O496   2.435       .  S
Zr493       O497   2.440       .  S
Zr493       O498   2.522       .  S
O494        C499   1.269       .  A
O495        H512   0.989   1_554  S
O495        H527   0.989       .  S
O496        H513   0.990   1_556  S
O497        H517   0.990       .  S
O497        H526   0.990       .  S
O498        C499   1.301       .  A
C499       C4270   1.482       .  S
O500        H519   0.990       .  S
O500        H523   0.990       .  S
O501        H515   0.989       .  S
O501        H522   0.990       .  S
O502        C506   1.286       .  A
O503        C506   1.282       .  A
O504        H514   0.989       .  S
O505        H518   0.991       .  S
C506       C4323   1.489       .  S
Zr529       O530   2.447       .  S
Zr529       O531   2.436       .  S
Zr529       O532   2.490       .  S
Zr529       O535   2.482       .  S
Zr529       O538   2.389       .  S
Zr529       O539   2.422       .  S
Zr529       O540   2.434       .  S
Zr529       O537   2.319       .  S
O530        H586   0.991       .  S
O530        H594   0.990       .  S
O531        C551   1.284       .  A
O532        C553   1.295       .  A
O533       Zr543   2.395       .  S
O533        C552   1.277       .  A
O534       Zr542   2.378       .  S
O534        C553   1.275       .  A
O535        C552   1.293       .  A
O536       Zr544   2.421       .  S
O536        C551   1.284       .  A
O537       Zr542   2.348       .  S
O537       Zr544   2.328       .  S
O538       Zr543   2.382       .  S
O538       Zr544   2.349       .  S
O538        H573   0.964       .  S
O539       Zr542   2.390       .  S
O539       Zr559   2.436       .  S
O539        H576   0.966       .  S
O540       Zr543   2.396       .  S
O540       Zr559   2.406       .  S
Zr541       O566   2.443       .  S
Zr541       O560   2.411       .  S
Zr541       O568   2.437       .  S
Zr541       O556   2.441       .  S
Zr541       O547   2.411       .  S
Zr541       O548   2.418       .  S
Zr541       O549   2.383       .  S
Zr541       O550   2.405       .  S
Zr542       O561   2.452       .  S
Zr542       O554   2.448       .  S
Zr542       O555   2.462       .  S
Zr542       O548   2.393       .  S
Zr542       O549   2.375       .  S
Zr543       O545   2.436       .  S
Zr543       O567   2.439       .  S
Zr543       O569   2.425       .  S
Zr543       O547   2.380       .  S
Zr543       O550   2.365       .  S
Zr544       O570   2.451       .  S
Zr544       O571   2.450       .  S
Zr544       O546   2.437       .  S
Zr544       O547   2.372       .  S
Zr544       O548   2.369       .  S
O545        H582   0.990       .  S
O546        H577   0.989       .  S
O546        H591   0.989       .  S
O548        H574   0.959       .  S
O549       Zr559   2.399       .  S
O550       Zr559   2.400       .  S
O550        H575   0.965       .  S
C551       C4200   1.475       .  S
C552       C4220   1.491       .  S
C553       C4230   1.485       .  S
O554        H590   0.991       .  S
O555        C557   1.284       .  A
O556        C557   1.287       .  A
C557       C4193   1.480       .  S
O558       Zr559   2.435       .  S
O558        H587   0.990       .  S
Zr559       O562   2.438       .  S
Zr559       O563   2.438       .  S
Zr559       O564   2.448       .  S
O560        C565   1.269       .  A
O561        H578   0.991       .  S
O561        H593   0.991       .  S
O562        H579   0.990       .  S
O563        H583   0.989       .  S
O563        H592   0.991       .  S
O564        C565   1.275       .  A
C565       C4243   1.486       .  S
O566        H585   0.990       .  S
O566        H589   0.989       .  S
O567        H581   0.989       .  S
O567        H588   0.990       .  S
O568        C572   1.282       .  A
O569        C572   1.284       .  A
O570        H580   0.991       .  S
O571        H584   0.990       .  S
C572       C4210   1.477       .  S
Zr595       O596   2.437       .  S
Zr595       O597   2.450       .  S
Zr595       O598   2.468       .  S
Zr595       O601   2.495       .  S
Zr595       O603   2.379       .  S
Zr595       O604   2.380       .  S
Zr595       O605   2.433       .  S
Zr595       O606   2.430       .  S
O596        H652   0.990       .  S
O596        H660   0.990       .  S
O597        C617   1.287       .  A
O598        C619   1.291       .  A
O599       Zr609   2.417       .  S
O599        C618   1.281       .  A
O600       Zr608   2.411       .  S
O600        C619   1.282       .  A
O601        C618   1.297       .  A
O602       Zr610   2.416       .  S
O602        C617   1.282       .  A
O603       Zr608   2.371       .  S
O603       Zr610   2.364       .  S
O604       Zr609   2.384       .  S
O604       Zr610   2.363       .  S
O604        H639   0.960       .  S
O605       Zr608   2.396       .  S
O605       Zr625   2.422       .  S
O605        H642   0.965       .  S
O606       Zr609   2.399       .  S
O606       Zr625   2.443       .  S
Zr607       O632   2.439       .  S
Zr607       O626   2.371       .  S
Zr607       O634   2.409       .  S
Zr607       O622   2.410       .  S
Zr607       O613   2.380       .  S
Zr607       O614   2.385       .  S
Zr607       O615   2.368       .  S
Zr607       O616   2.372       .  S
Zr608       O627   2.431       .  S
Zr608       O620   2.437       .  S
Zr608       O621   2.407       .  S
Zr608       O614   2.398       .  S
Zr608       O615   2.372       .  S
Zr609       O611   2.437       .  S
Zr609       O633   2.438       .  S
Zr609       O635   2.420       .  S
Zr609       O613   2.398       .  S
Zr609       O616   2.387       .  S
Zr610       O636   2.436       .  S
Zr610       O637   2.436       .  S
Zr610       O612   2.437       .  S
Zr610       O613   2.399       .  S
Zr610       O614   2.379       .  S
O611        H648   0.990       .  S
O612        H643   0.990       .  S
O612        H657   0.990       .  S
O614        H640   0.965       .  S
O615       Zr625   2.348       .  S
O616       Zr625   2.361       .  S
O616        H641   0.967       .  S
C617       C4203   1.482       .  S
C618       C4180   1.493       .  S
C619       C4170   1.495       .  S
O620        H656   0.990       .  S
O621        C623   1.280       .  A
O622        C623   1.281       .  A
C623       C4150   1.481       .  S
O624       Zr625   2.438       .  S
O624        H653   0.991       .  S
Zr625       O628   2.438       .  S
Zr625       O629   2.440       .  S
Zr625       O630   2.516       .  S
O626        C631   1.273       .  A
O627        H644   0.990       .  S
O627        H659   0.989       .  S
O628        H645   0.990       .  S
O629        H649   0.990       .  S
O629        H658   0.989       .  S
O630        C631   1.298       .  A
C631       C4163   1.486       .  S
O632        H651   0.990       .  S
O632        H655   0.990       .  S
O633        H647   0.990       .  S
O633        H654   0.990       .  S
O634        C638   1.283       .  A
O635        C638   1.281       .  A
O636        H646   0.991       .  S
O637        H650   0.989       .  S
C638       C4143   1.482       .  S
Zr661       O662   2.434       .  S
Zr661       O663   2.417       .  S
Zr661       O664   2.464       .  S
Zr661       O667   2.480       .  S
Zr661       O669   2.378       .  S
Zr661       O670   2.384       .  S
Zr661       O671   2.426       .  S
Zr661       O672   2.412       .  S
O662        H718   0.990       .  S
O662        H726   0.990       .  S
O663        C683   1.280       .  A
O664        C685   1.290       .  A
O665       Zr675   2.397       .  S
O665        C684   1.278       .  A
O666       Zr674   2.438       .  S
O666        C685   1.286       .  A
O667        C684   1.294       .  A
O668       Zr676   2.427       .  S
O668        C683   1.285       .  A
O669       Zr674   2.384       .  S
O669       Zr676   2.356       .  S
O670       Zr675   2.390       .  S
O670       Zr676   2.364       .  S
O670        H705   0.966       .  S
O671       Zr674   2.406       .  S
O671       Zr691   2.427       .  S
O671        H708   0.967       .  S
O672       Zr675   2.402       .  S
O672       Zr691   2.425       .  S
Zr673       O698   2.437       .  S
Zr673       O692   2.373       .  S
Zr673       O700   2.380       .  S
Zr673       O688   2.367       .  S
Zr673       O679   2.386       .  S
Zr673       O680   2.387       .  S
Zr673       O681   2.365       .  S
Zr673       O682   2.363       .  S
Zr674       O693   2.435   1_545  S
Zr674       O686   2.432   1_545  S
Zr674       O687   2.463       .  S
Zr674       O680   2.401       .  S
Zr674       O681   2.371       .  S
Zr675       O677   2.434       .  S
Zr675       O699   2.436       .  S
Zr675       O701   2.437       .  S
Zr675       O679   2.391       .  S
Zr675       O682   2.364       .  S
Zr676       O702   2.437       .  S
Zr676       O703   2.436       .  S
Zr676       O678   2.437       .  S
Zr676       O679   2.402       .  S
Zr676       O680   2.398       .  S
O677        H714   0.990       .  S
O678        H709   0.990       .  S
O678        H723   0.990       .  S
O680        H706   0.967       .  S
O681       Zr691   2.362       .  S
O682       Zr691   2.353       .  S
O682        H707   0.962       .  S
C683       C4213   1.484       .  S
C684       C4120   1.476       .  S
C685       C4130   1.510       .  S
O686        H722   0.991   1_565  S
O687        C689   1.290       .  A
O688        C689   1.271       .  A
C689       C4103   1.485   1_545  S
O690       Zr691   2.437       .  S
O690        H719   0.990       .  S
Zr691       O694   2.436   1_545  S
Zr691       O695   2.437       .  S
Zr691       O696   2.497       .  S
O692        C697   1.273       .  A
O693        H710   0.990       .  S
O693        H725   0.990       .  S
O694        H711   0.990       .  S
O695        H715   0.990       .  S
O695        H724   0.990       .  S
O696        C697   1.295       .  A
C697       C4110   1.477       .  S
O698        H717   0.990       .  S
O698        H721   0.990       .  S
O699        H713   0.990       .  S
O699        H720   0.989       .  S
O700        C704   1.273       .  A
O701        C704   1.285       .  A
O702        H712   0.989       .  S
O703        H716   0.989       .  S
C704       C4153   1.481       .  S
Zr727       O728   2.433       .  S
Zr727       O729   2.413       .  S
Zr727       O730   2.514       .  S
Zr727       O733   2.516       .  S
Zr727       O735   2.381       .  S
Zr727       O736   2.381       .  S
Zr727       O737   2.436       .  S
Zr727       O738   2.439       .  S
O728        H784   0.990       .  S
O728        H792   0.991       .  S
O729        C749   1.280       .  A
O730        C751   1.300       .  A
O731       Zr741   2.402       .  S
O731        C750   1.279       .  A
O732       Zr740   2.404       .  S
O732        C751   1.280       .  A
O733        C750   1.300       .  A
O734       Zr742   2.430       .  S
O734        C749   1.285       .  A
O735       Zr740   2.379       .  S
O735       Zr742   2.370       .  S
O736       Zr741   2.380       .  S
O736       Zr742   2.350       .  S
O736        H771   0.957       .  S
O737       Zr740   2.396       .  S
O737       Zr757   2.435       .  S
O737        H774   0.965       .  S
O738       Zr741   2.393       .  S
O738       Zr757   2.443       .  S
Zr739       O764   2.437       .  S
Zr739       O758   2.355       .  S
Zr739       O766   2.456       .  S
Zr739       O754   2.437       .  S
Zr739       O745   2.385       .  S
Zr739       O746   2.390       .  S
Zr739       O747   2.378       .  S
Zr739       O748   2.382       .  S
Zr740       O759   2.441       .  S
Zr740       O752   2.435       .  S
Zr740       O753   2.406       .  S
Zr740       O746   2.396       .  S
Zr740       O747   2.380       .  S
Zr741       O743   2.436   1_545  S
Zr741       O765   2.439       .  S
Zr741       O767   2.393       .  S
Zr741       O745   2.395       .  S
Zr741       O748   2.377       .  S
Zr742       O768   2.435       .  S
Zr742       O769   2.436       .  S
Zr742       O744   2.434       .  S
Zr742       O745   2.392       .  S
Zr742       O746   2.381       .  S
O743        H780   0.990       .  S
O744        H775   0.990       .  S
O744        H789   0.990       .  S
O746        H772   0.966       .  S
O747       Zr757   2.353       .  S
O748       Zr757   2.347       .  S
O748        H773   0.965       .  S
C749       C4190   1.470       .  S
C750       C4090   1.498       .  S
C751       C4080   1.514       .  S
O752        H788   0.990       .  S
O753        C755   1.277       .  A
O754        C755   1.286       .  A
C755       C4140   1.489       .  S
O756       Zr757   2.435       .  S
O756        H785   0.990       .  S
Zr757       O760   2.436       .  S
Zr757       O761   2.439   1_545  S
Zr757       O762   2.525       .  S
O758        C763   1.270       .  A
O759        H776   0.989       .  S
O759        H791   0.989       .  S
O760        H777   0.990       .  S
O761        H781   0.990       .  S
O761        H790   0.989       .  S
O762        C763   1.301       .  A
C763       C4073   1.486       .  S
O764        H783   0.990       .  S
O764        H787   0.990       .  S
O765        H779   0.989       .  S
O765        H786   0.990       .  S
O766        C770   1.288       .  A
O767        C770   1.276       .  A
O768        H778   0.990       .  S
O769        H782   0.990       .  S
C770       C4100   1.493       .  S
Zr793       O794   2.438       .  S
Zr793       O795   2.454       .  S
Zr793       O796   2.448       .  S
Zr793       O799   2.465       .  S
Zr793       O801   2.383       .  S
Zr793       O802   2.385       .  S
Zr793       O803   2.414       .  S
Zr793       O804   2.405       .  S
O794        H850   0.989       .  S
O794        H858   0.991       .  S
O795        C815   1.286       .  A
O796        C817   1.288       .  A
O797       Zr807   2.460       .  S
O797        C816   1.291       .  A
O798       Zr806   2.451       .  S
O798        C817   1.288       .  A
O799        C816   1.291       .  A
O800       Zr808   2.452       .  S
O800        C815   1.284       .  A
O801       Zr806   2.397       .  S
O801       Zr808   2.370       .  S
O802       Zr807   2.393       .  S
O802       Zr808   2.379       .  S
O802        H837   0.965       .  S
O803       Zr806   2.403       .  S
O803       Zr823   2.401       .  S
O803        H840   0.966       .  S
O804       Zr807   2.399       .  S
O804       Zr823   2.399       .  S
Zr805       O830   2.441       .  S
Zr805       O824   2.456       .  S
Zr805       O832   2.437       .  S
Zr805       O820   2.471       .  S
Zr805       O811   2.415       .  S
Zr805       O812   2.410       .  S
Zr805       O813   2.378       .  S
Zr805       O814   2.386       .  S
Zr806       O825   2.434       .  S
Zr806       O818   2.437       .  S
Zr806       O819   2.460       .  S
Zr806       O812   2.396       .  S
Zr806       O813   2.401       .  S
Zr807       O809   2.434       .  S
Zr807       O831   2.434       .  S
Zr807       O833   2.470       .  S
Zr807       O811   2.394       .  S
Zr807       O814   2.396       .  S
Zr808       O834   2.437       .  S
Zr808       O835   2.435       .  S
Zr808       O810   2.436       .  S
Zr808       O811   2.408       .  S
Zr808       O812   2.405       .  S
O809        H846   0.989       .  S
O810        H841   0.990       .  S
O810        H855   0.990       .  S
O812        H838   0.964       .  S
O813       Zr823   2.382       .  S
O814       Zr823   2.382       .  S
O814        H839   0.965       .  S
C815       C4250   1.533       .  S
C816       C4343   1.505       .  S
C817       C4293   1.492       .  S
O818        H854   0.990       .  S
O819        C821   1.289       .  A
O820        C821   1.292       .  A
C821       C4083   1.503       .  S
O822       Zr823   2.441       .  S
O822        H851   0.990       .  S
Zr823       O826   2.437       .  S
Zr823       O827   2.437       .  S
Zr823       O828   2.438       .  S
O824        C829   1.288       .  A
O825        H842   0.990       .  S
O825        H857   0.990       .  S
O826        H843   0.990       .  S
O827        H847   0.989       .  S
O827        H856   0.990       .  S
O828        C829   1.284       .  A
C829       C4233   1.512       .  S
O830        H849   0.991       .  S
O830        H853   0.990       .  S
O831        H845   0.990       .  S
O831        H852   0.989       .  S
O832        C836   1.285       .  A
O833        C836   1.291       .  A
O834        H844   0.990       .  S
O835        H848   0.991       .  S
C836       C4183   1.500       .  S
Zr859       O860   2.441       .  S
Zr859       O861   2.369       .  S
Zr859       O862   2.427       .  S
Zr859       O865   2.417       .  S
Zr859       O867   2.378       .  S
Zr859       O868   2.399       .  S
Zr859       O869   2.381       .  S
Zr859       O870   2.395       .  S
O860        H916   0.989       .  S
O860        H924   0.991       .  S
O861        C881   1.272       .  A
O862        C883   1.283       .  A
O863       Zr873   2.421       .  S
O863        C882   1.273       .  A
O864       Zr872   2.428       .  S
O864        C883   1.281       .  A
O865        C882   1.276       .  A
O866       Zr874   2.527       .  S
O866        C881   1.299       .  A
O867       Zr872   2.384       .  S
O867       Zr874   2.379       .  S
O868       Zr873   2.384       .  S
O868       Zr874   2.344       .  S
O868        H903   0.966       .  S
O869       Zr872   2.400       .  S
O869       Zr889   2.397       .  S
O869        H906   0.970       .  S
O870       Zr873   2.418       .  S
O870       Zr889   2.367       .  S
Zr871       O896   2.435       .  S
Zr871       O890   2.459       .  S
Zr871       O898   2.475       .  S
Zr871       O886   2.496       .  S
Zr871       O878   2.446       .  S
Zr871       O879   2.402       .  S
Zr871       O880   2.373       .  S
Zr871       O877   2.375       .  S
Zr872       O891   2.435       .  S
Zr872       O884   2.436       .  S
Zr872       O885   2.396       .  S
Zr872       O878   2.411       .  S
Zr872       O879   2.403       .  S
Zr873       O875   2.448       .  S
Zr873       O897   2.428       .  S
Zr873       O899   2.440       .  S
Zr873       O880   2.363       .  S
Zr873       O877   2.321       .  S
Zr874       O900   2.428       .  S
Zr874       O901   2.432       .  S
Zr874       O876   2.453       .  S
Zr874       O878   2.413       .  S
Zr874       O877   2.376       .  S
O875        H912   0.990       .  S
O876        H907   0.991       .  S
O876        H921   0.990       .  S
O878        H904   0.966       .  S
O879       Zr889   2.355       .  S
O880       Zr889   2.377       .  S
O880        H905   0.964       .  S
C881       C4063   1.486       .  S
C882       C4020   1.474       .  S
C883       C4030   1.485       .  S
O884        H920   0.990       .  S
O885        C887   1.265       .  A
O886        C887   1.285       .  A
C887       C4040   1.496       .  S
O888       Zr889   2.437       .  S
O888        H917   0.990       .  S
Zr889       O892   2.434       .  S
Zr889       O893   2.440       .  S
Zr889       O894   2.424       .  S
O890        C895   1.286       .  A
O891        H908   0.989       .  S
O891        H923   0.990       .  S
O892        H909   0.989       .  S
O893        H913   0.990       .  S
O893        H922   0.990       .  S
O894        C895   1.284       .  A
C895       C4010   1.470       .  S
O896        H915   0.990       .  S
O896        H919   0.991       .  S
O897        H911   0.990       .  S
O897        H918   0.989       .  S
O898        C902   1.293       .  A
O899        C902   1.287       .  A
O900        H910   0.989       .  S
O901        H914   0.990       .  S
C902       C4050   1.522       .  S
Zr925       O926   2.433       .  S
Zr925       O927   2.449       .  S
Zr925       O928   2.460       .  S
Zr925       O931   2.492       .  S
Zr925       O933   2.382       .  S
Zr925       O934   2.377       .  S
Zr925       O935   2.436       .  S
Zr925       O936   2.417       .  S
O926        H982   0.990       .  S
O926        H990   0.990       .  S
O927        C947   1.286       .  A
O928        C949   1.288       .  A
O929       Zr939   2.395       .  S
O929        C948   1.277       .  A
O930       Zr938   2.389       .  S
O930        C949   1.279       .  A
O931        C948   1.296       .  A
O932       Zr940   2.402       .  S
O932        C947   1.280       .  A
O933       Zr938   2.383       .  S
O933       Zr940   2.359       .  S
O934       Zr939   2.386       .  S
O934       Zr940   2.379       .  S
O934        H969   0.964       .  S
O935       Zr938   2.394       .  S
O935       Zr955   2.418       .  S
O935        H972   0.962       .  S
O936       Zr939   2.381       .  S
O936       Zr955   2.417       .  S
Zr937       O962   2.440       .  S
Zr937       O956   2.375       .  S
Zr937       O964   2.444       .  S
Zr937       O952   2.434       .  S
Zr937       O943   2.389       .  S
Zr937       O944   2.396       .  S
Zr937       O945   2.383       .  S
Zr937       O946   2.390       .  S
Zr938       O957   2.436       .  S
Zr938       O950   2.434       .  S
Zr938       O951   2.418       .  S
Zr938       O944   2.403       .  S
Zr938       O945   2.371       .  S
Zr939       O941   2.433       .  S
Zr939       O963   2.436       .  S
Zr939       O965   2.397       .  S
Zr939       O943   2.395       .  S
Zr939       O946   2.382       .  S
Zr940       O966   2.438       .  S
Zr940       O967   2.432       .  S
Zr940       O942   2.435       .  S
Zr940       O943   2.372       .  S
Zr940       O944   2.396       .  S
O941        H978   0.990       .  S
O942        H973   0.989       .  S
O942        H987   0.990       .  S
O944        H970   0.961       .  S
O945       Zr955   2.366       .  S
O946       Zr955   2.368       .  S
O946        H971   0.964       .  S
C947       C4013   1.480       .  S
C948       C3980   1.515       .  S
C949       C3990   1.487       .  S
O950        H986   0.989       .  S
O951        C953   1.279       .  A
O952        C953   1.285       .  A
C953       C3970   1.486       .  S
O954       Zr955   2.433       .  S
O954        H983   0.990       .  S
Zr955       O958   2.435       .  S
Zr955       O959   2.437       .  S
Zr955       O960   2.465       .  S
O956        C961   1.274       .  A
O957        H974   0.991       .  S
O957        H989   0.989       .  S
O958        H975   0.990       .  S
O959        H979   0.990       .  S
O959        H988   0.989       .  S
O960        C961   1.288       .  A
C961       C4000   1.467       .  S
O962        H981   0.990       .  S
O962        H985   0.989       .  S
O963        H977   0.988       .  S
O963        H984   0.990       .  S
O964        C968   1.282       .  A
O965        C968   1.269       .  A
O966        H976   0.990       .  S
O967        H980   0.990       .  S
C968       C3960   1.478       .  S
Zr991       O992   2.434       .  S
Zr991       O993   2.474       .  S
Zr991       O994   2.469       .  S
Zr991       O997   2.459       .  S
Zr991       O999   2.385       .  S
Zr991      O1000   2.376       .  S
Zr991      O1001   2.438       .  S
Zr991      O1002   2.431       .  S
O992       H1048   0.990   1_565  S
O992       H1056   0.990       .  S
O993       C1013   1.292       .  A
O994       C1015   1.286       .  A
O995      Zr1005   2.427       .  S
O995       C1014   1.284       .  A
O996      Zr1004   2.404       .  S
O996       C1015   1.267       .  A
O997       C1014   1.290       .  A
O998      Zr1006   2.421       .  S
O998       C1013   1.281       .  A
O999      Zr1004   2.400       .  S
O999      Zr1006   2.362       .  S
O1000     Zr1005   2.373       .  S
O1000     Zr1006   2.377       .  S
O1000      H1035   0.963       .  S
O1001     Zr1004   2.403       .  S
O1001     Zr1021   2.404       .  S
O1001      H1038   0.967       .  S
O1002     Zr1005   2.386       .  S
O1002     Zr1021   2.426       .  S
Zr1003     O1028   2.442       .  S
Zr1003     O1022   2.380       .  S
Zr1003     O1030   2.435       .  S
Zr1003     O1018   2.426       .  S
Zr1003     O1009   2.401       .  S
Zr1003     O1010   2.395       .  S
Zr1003     O1011   2.385       .  S
Zr1003     O1012   2.398       .  S
Zr1004     O1023   2.436       .  S
Zr1004     O1016   2.426       .  S
Zr1004     O1017   2.423       .  S
Zr1004     O1010   2.402       .  S
Zr1004     O1011   2.383       .  S
Zr1005     O1007   2.429       .  S
Zr1005     O1029   2.436       .  S
Zr1005     O1031   2.395       .  S
Zr1005     O1009   2.402       .  S
Zr1005     O1012   2.389       .  S
Zr1006     O1032   2.435       .  S
Zr1006     O1033   2.439       .  S
Zr1006     O1008   2.439       .  S
Zr1006     O1009   2.385       .  S
Zr1006     O1010   2.398       .  S
O1007      H1044   0.989       .  S
O1008      H1039   0.990       .  S
O1008      H1053   0.991       .  S
O1010      H1036   0.969       .  S
O1011     Zr1021   2.378       .  S
O1012     Zr1021   2.344       .  S
O1012      H1037   0.958       .  S
C1013      C3920   1.486       .  S
C1014      C3940   1.507       .  S
C1015      C3953   1.496       .  S
O1016      H1052   0.989       .  S
O1017      C1019   1.281       .  A
O1018      C1019   1.284       .  A
C1019      C3973   1.475       .  S
O1020     Zr1021   2.436       .  S
O1020      H1049   0.990       .  S
Zr1021     O1024   2.436       .  S
Zr1021     O1025   2.438       .  S
Zr1021     O1026   2.484       .  S
O1022      C1027   1.273       .  A
O1023      H1040   0.991       .  S
O1023      H1055   0.989       .  S
O1024      H1041   0.990       .  S
O1025      H1045   0.990       .  S
O1025      H1054   0.990       .  S
O1026      C1027   1.292       .  A
C1027      C3930   1.472       .  S
O1028      H1047   0.990       .  S
O1028      H1051   0.990       .  S
O1029      H1043   0.990       .  S
O1029      H1050   0.989       .  S
O1030      C1034   1.278       .  A
O1031      C1034   1.264       .  A
O1032      H1042   0.989       .  S
O1033      H1046   0.990       .  S
C1034      C4023   1.463       .  S
Zr1057     O1058   2.439       .  S
Zr1057     O1059   2.375       .  S
Zr1057     O1060   2.432       .  S
Zr1057     O1063   2.456       .  S
Zr1057     O1065   2.389       .  S
Zr1057     O1066   2.393       .  S
Zr1057     O1067   2.398       .  S
Zr1057     O1068   2.390       .  S
O1058      H1114   0.990       .  S
O1058      H1122   0.990       .  S
O1059      C1079   1.272       .  A
O1060      C1081   1.286       .  A
O1061     Zr1071   2.380       .  S
O1061      C1080   1.265       .  A
O1062     Zr1070   2.440       .  S
O1062      C1081   1.285       .  A
O1063      C1080   1.283       .  A
O1064     Zr1072   2.513       .  S
O1064      C1079   1.298       .  A
O1065     Zr1070   2.384       .  S
O1065     Zr1072   2.369       .  S
O1066     Zr1071   2.390       .  S
O1066     Zr1072   2.349       .  S
O1066      H1101   0.964       .  S
O1067     Zr1070   2.399       .  S
O1067     Zr1087   2.369       .  S
O1067      H1104   0.964       .  S
O1068     Zr1071   2.406       .  S
O1068     Zr1087   2.383       .  S
Zr1069     O1094   2.435   1_565  S
Zr1069     O1088   2.458       .  S
Zr1069     O1096   2.507       .  S
Zr1069     O1084   2.460       .  S
Zr1069     O1075   2.428       .  S
Zr1069     O1076   2.452       .  S
Zr1069     O1077   2.385       .  S
Zr1069     O1078   2.364       .  S
Zr1070     O1089   2.434       .  S
Zr1070     O1082   2.434       .  S
Zr1070     O1083   2.415       .  S
Zr1070     O1076   2.406       .  S
Zr1070     O1077   2.389       .  S
Zr1071     O1073   2.435       .  S
Zr1071     O1095   2.435       .  S
Zr1071     O1097   2.396       .  S
Zr1071     O1075   2.380       .  S
Zr1071     O1078   2.377       .  S
Zr1072     O1098   2.436       .  S
Zr1072     O1099   2.436       .  S
Zr1072     O1074   2.436       .  S
Zr1072     O1075   2.438       .  S
Zr1072     O1076   2.426       .  S
O1073      H1110   0.989       .  S
O1074      H1105   0.991       .  S
O1074      H1119   0.990       .  S
O1076      H1102   0.963       .  S
O1077     Zr1087   2.358       .  S
O1078     Zr1087   2.362       .  S
O1078      H1103   0.965       .  S
C1079      C3890   1.488       .  S
C1080      C3963   1.473       .  S
C1081      C4033   1.485       .  S
O1082      H1118   0.989       .  S
O1083      C1085   1.277       .  A
O1084      C1085   1.287       .  A
C1085      C3903   1.504       .  S
O1086     Zr1087   2.435       .  S
O1086      H1115   0.990       .  S
Zr1087     O1090   2.434       .  S
Zr1087     O1091   2.435       .  S
Zr1087     O1092   2.401       .  S
O1088      C1093   1.288       .  A
O1089      H1106   0.990       .  S
O1089      H1121   0.989       .  S
O1090      H1107   0.989       .  S
O1091      H1111   0.990       .  S
O1091      H1120   0.990       .  S
O1092      C1093   1.280       .  A
C1093      C3923   1.483       .  S
O1094      H1113   0.991       .  S
O1094      H1117   0.991       .  S
O1095      H1109   0.990       .  S
O1095      H1116   0.990       .  S
O1096      C1100   1.299       .  A
O1097      C1100   1.278       .  A
O1098      H1108   0.990       .  S
O1099      H1112   0.990       .  S
C1100      C3910   1.490       .  S
Zr1123     O1124   2.443       .  S
Zr1123     O1125   2.404       .  S
Zr1123     O1126   2.460       .  S
Zr1123     O1129   2.443       .  S
Zr1123     O1131   2.387       .  S
Zr1123     O1132   2.408       .  S
Zr1123     O1133   2.394       .  S
Zr1123     O1134   2.410       .  S
O1124      H1180   0.990       .  S
O1124      H1188   0.989       .  S
O1125      C1145   1.266       .  A
O1126      C1147   1.290       .  A
O1127     Zr1137   2.420       .  S
O1127      C1146   1.284       .  A
O1128     Zr1136   2.456       .  S
O1128      C1147   1.288       .  A
O1129      C1146   1.283       .  A
O1130     Zr1138   2.448       .  S
O1130      C1145   1.273       .  A
O1131     Zr1136   2.362       .  S
O1131     Zr1138   2.401       .  S
O1132     Zr1137   2.379       .  S
O1132     Zr1138   2.396       .  S
O1132      H1167   0.964       .  S
O1133     Zr1136   2.401       .  S
O1133     Zr1153   2.359       .  S
O1133      H1170   0.993       .  S
O1134     Zr1137   2.390       .  S
O1134     Zr1153   2.357       .  S
Zr1135     O1160   2.434       .  S
Zr1135     O1154   2.470       .  S
Zr1135     O1162   2.454       .  S
Zr1135     O1150   2.465       .  S
Zr1135     O1141   2.431       .  S
Zr1135     O1142   2.437       .  S
Zr1135     O1143   2.383       .  S
Zr1135     O1144   2.384       .  S
Zr1136     O1155   2.442       .  S
Zr1136     O1148   2.433       .  S
Zr1136     O1149   2.411       .  S
Zr1136     O1142   2.406       .  S
Zr1136     O1143   2.407       .  S
Zr1137     O1139   2.438       .  S
Zr1137     O1161   2.438       .  S
Zr1137     O1163   2.427       .  S
Zr1137     O1141   2.387       .  S
Zr1137     O1144   2.387       .  S
Zr1138     O1164   2.435       .  S
Zr1138     O1165   2.439       .  S
Zr1138     O1140   2.437       .  S
Zr1138     O1141   2.414       .  S
Zr1138     O1142   2.425       .  S
O1139      H1176   0.989       .  S
O1140      H1171   0.990       .  S
O1140      H1185   0.991       .  S
O1142      H1168   0.964       .  S
O1143     Zr1153   2.375       .  S
O1144     Zr1153   2.353       .  S
O1144      H1169   0.968       .  S
C1145      C3880   1.482       .  S
C1146      C3840   1.471       .  S
C1147      C3830   1.480       .  S
O1148      H1184   0.990       .  S
O1149      C1151   1.272       .  A
O1150      C1151   1.286       .  A
C1151      C3863   1.476       .  S
O1152     Zr1153   2.438       .  S
O1152      H1181   0.989       .  S
Zr1153     O1156   2.437       .  S
Zr1153     O1157   2.437       .  S
Zr1153     O1158   2.396       .  S
O1154      C1159   1.290       .  A
O1155      H1172   0.990       .  S
O1155      H1187   0.987       .  S
O1156      H1173   0.990       .  S
O1157      H1177   0.990       .  S
O1157      H1186   0.990       .  S
O1158      C1159   1.277       .  A
C1159      C3850   1.480       .  S
O1160      H1179   0.990       .  S
O1160      H1183   0.991       .  S
O1161      H1175   0.988       .  S
O1161      H1182   0.991       .  S
O1162      C1166   1.290       .  A
O1163      C1166   1.284       .  A
O1164      H1174   0.989       .  S
O1165      H1178   0.990       .  S
C1166      C3870   1.496       .  S
Zr1189     O1190   2.432       .  S
Zr1189     O1191   2.419       .  S
Zr1189     O1192   2.487       .  S
Zr1189     O1195   2.510       .  S
Zr1189     O1197   2.383       .  S
Zr1189     O1198   2.389       .  S
Zr1189     O1199   2.438       .  S
Zr1189     O1200   2.432       .  S
O1190      H1246   0.990       .  S
O1190      H1254   0.990       .  S
O1191      C1211   1.280       .  A
O1192      C1213   1.294       .  A
O1193     Zr1203   2.415       .  S
O1193      C1212   1.280       .  A
O1194     Zr1202   2.399       .  S
O1194      C1213   1.278       .  A
O1195      C1212   1.300       .  A
O1196     Zr1204   2.423       .  S
O1196      C1211   1.283       .  A
O1197     Zr1202   2.388       .  S
O1197     Zr1204   2.374       .  S
O1198     Zr1203   2.393       .  S
O1198     Zr1204   2.358       .  S
O1198      H1233   0.954       .  S
O1199     Zr1202   2.388       .  S
O1199     Zr1219   2.425       .  S
O1199      H1236   0.967       .  S
O1200     Zr1203   2.396       .  S
O1200     Zr1219   2.446       .  S
Zr1201     O1226   2.437       .  S
Zr1201     O1220   2.368       .  S
Zr1201     O1228   2.379       .  S
Zr1201     O1216   2.413       .  S
Zr1201     O1207   2.387       .  S
Zr1201     O1208   2.383       .  S
Zr1201     O1209   2.381       .  S
Zr1201     O1210   2.374       .  S
Zr1202     O1221   2.434       .  S
Zr1202     O1214   2.435       .  S
Zr1202     O1215   2.419       .  S
Zr1202     O1208   2.402       .  S
Zr1202     O1209   2.361       .  S
Zr1203     O1205   2.433       .  S
Zr1203     O1227   2.445       .  S
Zr1203     O1229   2.439       .  S
Zr1203     O1207   2.395       .  S
Zr1203     O1210   2.369       .  S
Zr1204     O1230   2.437       .  S
Zr1204     O1231   2.437       .  S
Zr1204     O1206   2.437       .  S
Zr1204     O1207   2.390       .  S
Zr1204     O1208   2.382       .  S
O1205      H1242   0.990       .  S
O1206      H1237   0.995       .  S
O1206      H1251   0.985       .  S
O1208      H1234   0.961       .  S
O1209     Zr1219   2.355       .  S
O1210     Zr1219   2.354       .  S
O1210      H1235   0.969       .  S
C1211      C3843   1.494       .  S
C1212      C3800   1.502       .  S
C1213      C3810   1.497       .  S
O1214      H1250   0.991       .  S
O1215      C1217   1.283       .  A
O1216      C1217   1.281       .  A
C1217      C3780   1.483       .  S
O1218     Zr1219   2.436       .  S
O1218      H1247   0.990       .  S
Zr1219     O1222   2.434       .  S
Zr1219     O1223   2.442       .  S
Zr1219     O1224   2.523       .  S
O1220      C1225   1.265       .  A
O1221      H1238   0.989       .  S
O1221      H1253   0.991       .  S
O1222      H1239   0.990       .  S
O1223      H1243   0.990       .  S
O1223      H1252   0.990       .  S
O1224      C1225   1.298       .  A
C1225      C3820   1.488       .  S
O1226      H1245   0.990       .  S
O1226      H1249   0.990       .  S
O1227      H1241   0.990       .  S
O1227      H1248   0.990       .  S
O1228      C1232   1.277       .  A
O1229      C1232   1.286       .  A
O1230      H1240   0.990       .  S
O1231      H1244   0.990       .  S
C1232      C3790   1.479       .  S
Zr1255     O1256   2.434       .  S
Zr1255     O1257   2.389       .  S
Zr1255     O1258   2.509       .  S
Zr1255     O1261   2.482       .  S
Zr1255     O1263   2.376       .  S
Zr1255     O1264   2.392       .  S
Zr1255     O1265   2.428       .  S
Zr1255     O1266   2.422       .  S
O1256      H1312   0.991       .  S
O1256      H1320   0.989       .  S
O1257      C1277   1.275       .  A
O1258      C1279   1.298       .  A
O1259     Zr1269   2.384       .  S
O1259      C1278   1.275       .  A
O1260     Zr1268   2.419       .  S
O1260      C1279   1.282       .  A
O1261      C1278   1.294       .  A
O1262     Zr1270   2.452       .  S
O1262      C1277   1.291       .  A
O1263     Zr1268   2.386       .  S
O1263     Zr1270   2.359       .  S
O1264     Zr1269   2.388       .  S
O1264     Zr1270   2.349       .  S
O1264      H1299   0.965       .  S
O1265     Zr1268   2.402       .  S
O1265     Zr1285   2.432       .  S
O1265      H1302   0.962       .  S
O1266     Zr1269   2.401       .  S
O1266     Zr1285   2.416       .  S
Zr1267     O1292   2.439       .  S
Zr1267     O1286   2.370       .  S
Zr1267     O1294   2.377       .  S
Zr1267     O1282   2.372       .  S
Zr1267     O1273   2.380       .  S
Zr1267     O1274   2.382       .  S
Zr1267     O1275   2.370       .  S
Zr1267     O1276   2.367       .  S
Zr1268     O1287   2.434   1_455  S
Zr1268     O1280   2.435   1_455  S
Zr1268     O1281   2.450   1_455  S
Zr1268     O1274   2.395       .  S
Zr1268     O1275   2.370       .  S
Zr1269     O1271   2.434       .  S
Zr1269     O1293   2.439       .  S
Zr1269     O1295   2.439       .  S
Zr1269     O1273   2.387       .  S
Zr1269     O1276   2.353       .  S
Zr1270     O1296   2.439       .  S
Zr1270     O1297   2.435       .  S
Zr1270     O1272   2.433       .  S
Zr1270     O1273   2.395       .  S
Zr1270     O1274   2.399       .  S
O1271      H1308   0.990       .  S
O1272      H1303   0.990       .  S
O1272      H1317   0.990       .  S
O1274      H1300   0.968       .  S
O1275     Zr1285   2.373       .  S
O1276     Zr1285   2.353       .  S
O1276      H1301   0.966       .  S
C1277      C3833   1.479       .  S
C1278      C3760   1.469       .  S
C1279      C3750   1.515       .  S
O1280      H1316   0.990       .  S
O1281      C1283   1.287       .  A
O1282      C1283   1.274   1_455  A
C1283      C3740   1.484       .  S
O1284     Zr1285   2.435       .  S
O1284      H1313   0.991       .  S
Zr1285     O1288   2.437   1_455  S
Zr1285     O1289   2.439       .  S
Zr1285     O1290   2.498       .  S
O1286      C1291   1.273       .  A
O1287      H1304   0.991       .  S
O1287      H1319   0.989       .  S
O1288      H1305   0.990       .  S
O1289      H1309   0.990       .  S
O1289      H1318   0.991       .  S
O1290      C1291   1.295       .  A
C1291      C3770   1.476   1_455  S
O1292      H1311   0.991       .  S
O1292      H1315   0.990       .  S
O1293      H1307   0.989       .  S
O1293      H1314   0.991       .  S
O1294      C1298   1.272       .  A
O1295      C1298   1.285       .  A
O1296      H1306   0.989       .  S
O1297      H1310   0.990       .  S
C1298      C3783   1.483       .  S
Zr1321     O1322   2.434       .  S
Zr1321     O1323   2.496       .  S
Zr1321     O1324   2.513       .  S
Zr1321     O1327   2.486       .  S
Zr1321     O1329   2.380       .  S
Zr1321     O1330   2.384       .  S
Zr1321     O1331   2.434       .  S
Zr1321     O1332   2.380       .  S
O1322      H1378   0.990       .  S
O1322      H1386   0.990       .  S
O1323      C1343   1.294       .  A
O1324      C1345   1.298       .  A
O1325     Zr1335   2.393       .  S
O1325      C1344   1.278       .  A
O1326     Zr1334   2.420       .  S
O1326      C1345   1.283       .  A
O1327      C1344   1.296       .  A
O1328     Zr1336   2.408       .  S
O1328      C1343   1.279       .  A
O1329     Zr1334   2.374       .  S
O1329     Zr1336   2.372       .  S
O1330     Zr1335   2.393       .  S
O1330     Zr1336   2.383       .  S
O1330      H1365   0.964       .  S
O1331     Zr1334   2.387       .  S
O1331     Zr1351   2.440       .  S
O1331      H1368   0.959       .  S
O1332     Zr1335   2.325       .  S
O1332     Zr1351   2.379       .  S
Zr1333     O1358   2.437       .  S
Zr1333     O1352   2.379       .  S
Zr1333     O1360   2.449       .  S
Zr1333     O1348   2.426       .  S
Zr1333     O1339   2.386       .  S
Zr1333     O1340   2.396       .  S
Zr1333     O1341   2.378       .  S
Zr1333     O1342   2.369       .  S
Zr1334     O1353   2.436       .  S
Zr1334     O1346   2.435       .  S
Zr1334     O1347   2.392       .  S
Zr1334     O1340   2.404       .  S
Zr1334     O1341   2.376       .  S
Zr1335     O1337   2.427   1_455  S
Zr1335     O1359   2.454       .  S
Zr1335     O1361   2.419       .  S
Zr1335     O1339   2.398       .  S
Zr1335     O1342   2.374       .  S
Zr1336     O1362   2.436       .  S
Zr1336     O1363   2.437       .  S
Zr1336     O1338   2.436       .  S
Zr1336     O1339   2.390       .  S
Zr1336     O1340   2.385       .  S
O1337      H1374   0.988       .  S
O1338      H1369   0.990       .  S
O1338      H1383   0.990       .  S
O1340      H1366   0.965       .  S
O1341     Zr1351   2.352       .  S
O1342     Zr1351   2.345       .  S
O1342      H1367   0.961       .  S
C1343      C3853   1.489       .  S
C1344      C3710   1.502       .  S
C1345      C3723   1.512       .  S
O1346      H1382   0.990       .  S
O1347      C1349   1.276       .  A
O1348      C1349   1.284       .  A
C1349      C3793   1.483       .  S
O1350     Zr1351   2.432       .  S
O1350      H1379   0.990       .  S
Zr1351     O1354   2.449       .  S
Zr1351     O1355   2.441   1_455  S
Zr1351     O1356   2.565       .  S
O1352      C1357   1.274       .  A
O1353      H1370   0.989       .  S
O1353      H1385   0.988       .  S
O1354      H1371   0.990       .  S
O1355      H1375   0.989       .  S
O1355      H1384   0.990       .  S
O1356      C1357   1.308       .  A
C1357      C3730   1.508       .  S
O1358      H1377   0.990       .  S
O1358      H1381   0.990       .  S
O1359      H1373   0.990       .  S
O1359      H1380   0.990       .  S
O1360      C1364   1.288       .  A
O1361      C1364   1.279       .  A
O1362      H1372   0.991       .  S
O1363      H1376   0.990       .  S
C1364      C3743   1.494   1_455  S
Zr1387     O1388   2.445       .  S
Zr1387     O1389   2.441       .  S
Zr1387     O1390   2.460       .  S
Zr1387     O1393   2.414       .  S
Zr1387     O1395   2.373       .  S
Zr1387     O1396   2.393       .  S
Zr1387     O1397   2.393       .  S
Zr1387     O1398   2.404       .  S
O1388      H1444   0.991       .  S
O1388      H1452   0.990       .  S
O1389      C1409   1.284       .  A
O1390      C1411   1.289       .  A
O1391     Zr1401   2.476       .  S
O1391      C1410   1.292       .  A
O1392     Zr1400   2.425       .  S
O1392      C1411   1.282       .  A
O1393      C1410   1.280       .  A
O1394     Zr1402   2.415       .  S
O1394      C1409   1.278       .  A
O1395     Zr1400   2.402       .  S
O1395     Zr1402   2.387       .  S
O1396     Zr1401   2.411       .  S
O1396     Zr1402   2.371       .  S
O1396      H1431   0.965       .  S
O1397     Zr1400   2.390       .  S
O1397     Zr1417   2.370       .  S
O1397      H1434   0.963       .  S
O1398     Zr1401   2.399       .  S
O1398     Zr1417   2.378       .  S
Zr1399     O1424   2.444       .  S
Zr1399     O1418   2.477       .  S
Zr1399     O1426   2.448       .  S
Zr1399     O1414   2.473       .  S
Zr1399     O1405   2.416       .  S
Zr1399     O1406   2.413       .  S
Zr1399     O1407   2.377       .  S
Zr1399     O1408   2.391       .  S
Zr1400     O1419   2.437       .  S
Zr1400     O1412   2.436       .  S
Zr1400     O1413   2.420       .  S
Zr1400     O1406   2.401       .  S
Zr1400     O1407   2.398       .  S
Zr1401     O1403   2.437       .  S
Zr1401     O1425   2.438       .  S
Zr1401     O1427   2.482       .  S
Zr1401     O1405   2.404       .  S
Zr1401     O1408   2.400       .  S
Zr1402     O1428   2.437       .  S
Zr1402     O1429   2.439       .  S
Zr1402     O1404   2.440       .  S
Zr1402     O1405   2.399       .  S
Zr1402     O1406   2.380       .  S
O1403      H1440   0.990       .  S
O1404      H1435   0.990       .  S
O1404      H1449   0.990       .  S
O1406      H1432   0.964       .  S
O1407     Zr1417   2.392       .  S
O1408     Zr1417   2.382       .  S
O1408      H1433   0.965       .  S
C1409      C3763   1.491       .  S
C1410      C3813   1.484       .  S
C1411      C3883   1.479       .  S
O1412      H1448   0.990       .  S
O1413      C1415   1.282       .  A
O1414      C1415   1.292       .  A
C1415      C3933   1.488       .  S
O1416     Zr1417   2.434       .  S
O1416      H1445   0.991       .  S
Zr1417     O1420   2.435       .  S
Zr1417     O1421   2.438       .  S
Zr1417     O1422   2.374       .  S
O1418      C1423   1.291       .  A
O1419      H1436   0.990       .  S
O1419      H1451   0.990       .  S
O1420      H1437   0.990       .  S
O1421      H1441   0.991       .  S
O1421      H1450   0.990       .  S
O1422      C1423   1.272       .  A
C1423      C3993   1.475       .  S
O1424      H1443   0.990       .  S
O1424      H1447   0.990       .  S
O1425      H1439   0.991       .  S
O1425      H1446   0.990       .  S
O1426      C1430   1.286       .  A
O1427      C1430   1.294       .  A
O1428      H1438   0.990       .  S
O1429      H1442   0.991       .  S
C1430      C4053   1.502       .  S
Zr1453     O1454   2.443       .  S
Zr1453     O1455   2.489       .  S
Zr1453     O1456   2.431       .  S
Zr1453     O1459   2.455       .  S
Zr1453     O1461   2.381       .  S
Zr1453     O1462   2.376       .  S
Zr1453     O1463   2.431       .  S
Zr1453     O1464   2.412       .  S
O1454      H1510   0.989       .  S
O1454      H1518   0.990       .  S
O1455      C1475   1.292       .  A
O1456      C1477   1.283       .  A
O1457     Zr1467   2.468       .  S
O1457      C1476   1.291       .  A
O1458     Zr1466   2.469       .  S
O1458      C1477   1.290       .  A
O1459      C1476   1.288       .  A
O1460     Zr1468   2.434       .  S
O1460      C1475   1.282       .  A
O1461     Zr1466   2.410       .  S
O1461     Zr1468   2.383       .  S
O1462     Zr1467   2.408       .  S
O1462     Zr1468   2.381       .  S
O1462      H1497   0.969       .  S
O1463     Zr1466   2.403       .  S
O1463     Zr1483   2.398       .  S
O1463      H1500   0.963       .  S
O1464     Zr1467   2.382       .  S
O1464     Zr1483   2.404       .  S
Zr1465     O1490   2.442       .  S
Zr1465     O1484   2.490       .  S
Zr1465     O1492   2.466       .  S
Zr1465     O1480   2.450       .  S
Zr1465     O1471   2.412       .  S
Zr1465     O1472   2.424       .  S
Zr1465     O1473   2.383       .  S
Zr1465     O1474   2.386       .  S
Zr1466     O1485   2.435       .  S
Zr1466     O1478   2.435       .  S
Zr1466     O1479   2.461       .  S
Zr1466     O1472   2.405       .  S
Zr1466     O1473   2.406       .  S
Zr1467     O1469   2.437       .  S
Zr1467     O1491   2.436       .  S
Zr1467     O1493   2.440       .  S
Zr1467     O1471   2.401       .  S
Zr1467     O1474   2.417       .  S
Zr1468     O1494   2.434       .  S
Zr1468     O1495   2.436       .  S
Zr1468     O1470   2.440       .  S
Zr1468     O1471   2.402       .  S
Zr1468     O1472   2.388       .  S
O1469      H1506   0.989       .  S
O1470      H1501   0.990       .  S
O1470      H1515   0.990       .  S
O1472      H1498   0.961       .  S
O1473     Zr1483   2.381       .  S
O1474     Zr1483   2.376       .  S
O1474      H1499   0.965       .  S
C1475      C3803   1.523       .  S
C1476      C3720   1.515       .  S
C1477      C3873   1.488       .  S
O1478      H1514   0.990       .  S
O1479      C1481   1.290       .  A
O1480      C1481   1.287       .  A
C1481      C4353   1.491       .  S
O1482     Zr1483   2.436       .  S
O1482      H1511   0.990       .  S
Zr1483     O1486   2.434       .  S
Zr1483     O1487   2.438       .  S
Zr1483     O1488   2.445       .  S
O1484      C1489   1.293       .  A
O1485      H1502   0.990       .  S
O1485      H1517   0.990       .  S
O1486      H1503   0.989       .  S
O1487      H1507   0.990       .  S
O1487      H1516   0.990       .  S
O1488      C1489   1.283       .  A
C1489      C4400   1.533       .  S
O1490      H1509   0.990       .  S
O1490      H1513   0.990       .  S
O1491      H1505   0.990       .  S
O1491      H1512   0.990       .  S
O1492      C1496   1.290       .  A
O1493      C1496   1.285       .  A
O1494      H1504   0.990       .  S
O1495      H1508   0.990       .  S
C1496      C4303   1.495       .  S
Zr1519     O1520   2.439       .  S
Zr1519     O1521   2.468       .  S
Zr1519     O1522   2.462       .  S
Zr1519     O1525   2.461       .  S
Zr1519     O1527   2.389       .  S
Zr1519     O1528   2.387       .  S
Zr1519     O1529   2.423       .  S
Zr1519     O1530   2.422       .  S
O1520      H1576   0.990       .  S
O1520      H1584   0.991       .  S
O1521      C1541   1.289       .  A
O1522      C1543   1.288       .  A
O1523     Zr1533   2.411       .  S
O1523      C1542   1.282       .  A
O1524     Zr1532   2.410       .  S
O1524      C1543   1.281       .  A
O1525      C1542   1.291       .  A
O1526     Zr1534   2.382       .  S
O1526      C1541   1.273       .  A
O1527     Zr1532   2.395       .  S
O1527     Zr1534   2.391       .  S
O1528     Zr1533   2.385       .  S
O1528     Zr1534   2.368       .  S
O1528      H1563   0.965       .  S
O1529     Zr1532   2.393       .  S
O1529     Zr1549   2.421       .  S
O1529      H1566   0.966       .  S
O1530     Zr1533   2.397       .  S
O1530     Zr1549   2.415       .  S
Zr1531     O1556   2.441       .  S
Zr1531     O1550   2.372       .  S
Zr1531     O1558   2.385       .  S
Zr1531     O1546   2.407       .  S
Zr1531     O1537   2.376       .  S
Zr1531     O1538   2.380       .  S
Zr1531     O1539   2.367       .  S
Zr1531     O1540   2.374       .  S
Zr1532     O1551   2.435       .  S
Zr1532     O1544   2.435       .  S
Zr1532     O1545   2.432       .  S
Zr1532     O1538   2.388       .  S
Zr1532     O1539   2.377       .  S
Zr1533     O1535   2.434       .  S
Zr1533     O1557   2.439       .  S
Zr1533     O1559   2.437       .  S
Zr1533     O1537   2.385       .  S
Zr1533     O1540   2.373       .  S
Zr1534     O1560   2.440       .  S
Zr1534     O1561   2.437       .  S
Zr1534     O1536   2.440       .  S
Zr1534     O1537   2.370       .  S
Zr1534     O1538   2.379       .  S
O1535      H1572   0.990       .  S
O1536      H1567   0.991       .  S
O1536      H1581   0.989       .  S
O1538      H1564   0.965       .  S
O1539     Zr1549   2.371       .  S
O1540     Zr1549   2.357       .  S
O1540      H1565   0.962       .  S
C1541      C3663   1.472       .  S
C1542      C3680   1.495       .  S
C1543      C3700   1.490       .  S
O1544      H1580   0.989       .  S
O1545      C1547   1.285       .  A
O1546      C1547   1.278       .  A
C1547      C3650   1.490       .  S
O1548     Zr1549   2.435       .  S
O1548      H1577   0.991       .  S
Zr1549     O1552   2.436       .  S
Zr1549     O1553   2.436       .  S
Zr1549     O1554   2.494       .  S
O1550      C1555   1.274       .  A
O1551      H1568   0.990       .  S
O1551      H1583   0.990       .  S
O1552      H1569   0.990       .  S
O1553      H1573   0.990       .  S
O1553      H1582   0.991       .  S
O1554      C1555   1.295       .  A
C1555      C3690   1.476       .  S
O1556      H1575   0.991       .  S
O1556      H1579   0.990       .  S
O1557      H1571   0.989       .  S
O1557      H1578   0.990       .  S
O1558      C1562   1.277       .  A
O1559      C1562   1.286       .  A
O1560      H1570   0.991       .  S
O1561      H1574   0.990       .  S
C1562      C3670   1.486       .  S
Zr1585     O1586   2.436       .  S
Zr1585     O1587   2.448       .  S
Zr1585     O1588   2.460       .  S
Zr1585     O1591   2.475       .  S
Zr1585     O1593   2.381       .  S
Zr1585     O1594   2.385       .  S
Zr1585     O1595   2.427       .  S
Zr1585     O1596   2.427       .  S
O1586      H1642   0.991       .  S
O1586      H1650   0.990       .  S
O1587      C1607   1.286       .  A
O1588      C1609   1.289       .  A
O1589     Zr1599   2.399       .  S
O1589      C1608   1.279       .  A
O1590     Zr1598   2.417       .  S
O1590      C1609   1.284       .  A
O1591      C1608   1.292       .  A
O1592     Zr1600   2.414       .  S
O1592      C1607   1.280       .  A
O1593     Zr1598   2.386       .  S
O1593     Zr1600   2.374       .  S
O1594     Zr1599   2.396       .  S
O1594     Zr1600   2.359       .  S
O1594      H1629   0.965       .  S
O1595     Zr1598   2.395       .  S
O1595     Zr1615   2.418       .  S
O1595      H1632   0.967       .  S
O1596     Zr1599   2.394       .  S
O1596     Zr1615   2.431       .  S
Zr1597     O1622   2.439       .  S
Zr1597     O1616   2.366       .  S
Zr1597     O1624   2.406       .  S
Zr1597     O1612   2.381       .  S
Zr1597     O1603   2.376       .  S
Zr1597     O1604   2.391       .  S
Zr1597     O1605   2.371       .  S
Zr1597     O1606   2.369       .  S
Zr1598     O1617   2.435       .  S
Zr1598     O1610   2.435       .  S
Zr1598     O1611   2.424       .  S
Zr1598     O1604   2.396       .  S
Zr1598     O1605   2.367       .  S
Zr1599     O1601   2.433   1_554  S
Zr1599     O1623   2.438       .  S
Zr1599     O1625   2.434       .  S
Zr1599     O1603   2.384       .  S
Zr1599     O1606   2.372       .  S
Zr1600     O1626   2.435       .  S
Zr1600     O1627   2.437       .  S
Zr1600     O1602   2.438       .  S
Zr1600     O1603   2.398       .  S
Zr1600     O1604   2.377       .  S
O1601      H1638   0.990       .  S
O1602      H1633   0.990       .  S
O1602      H1647   0.990       .  S
O1604      H1630   0.965       .  S
O1605     Zr1615   2.352       .  S
O1606     Zr1615   2.365       .  S
O1606      H1631   0.962   1_554  S
C1607      C3660   1.474       .  S
C1608      C3643   1.501       .  S
C1609      C3630   1.496       .  S
O1610      H1646   0.990       .  S
O1611      C1613   1.285       .  A
O1612      C1613   1.275       .  A
C1613      C3613   1.477       .  S
O1614     Zr1615   2.434       .  S
O1614      H1643   0.990       .  S
Zr1615     O1618   2.435       .  S
Zr1615     O1619   2.439   1_554  S
Zr1615     O1620   2.497       .  S
O1616      C1621   1.273       .  A
O1617      H1634   0.990       .  S
O1617      H1649   0.989       .  S
O1618      H1635   0.990       .  S
O1619      H1639   0.990       .  S
O1619      H1648   0.989       .  S
O1620      C1621   1.295       .  A
C1621      C3620   1.476       .  S
O1622      H1641   0.990       .  S
O1622      H1645   0.991       .  S
O1623      H1637   0.990       .  S
O1623      H1644   0.990       .  S
O1624      C1628   1.280       .  A
O1625      C1628   1.284       .  A
O1626      H1636   0.990       .  S
O1627      H1640   0.990       .  S
C1628      C3600   1.486   1_554  S
Zr1651     O1652   2.437       .  S
Zr1651     O1653   2.438       .  S
Zr1651     O1654   2.522       .  S
Zr1651     O1657   2.492       .  S
Zr1651     O1659   2.388       .  S
Zr1651     O1660   2.380       .  S
Zr1651     O1661   2.432       .  S
Zr1651     O1662   2.386       .  S
O1652      H1708   0.991       .  S
O1652      H1716   0.990       .  S
O1653      C1673   1.283       .  A
O1654      C1675   1.298       .  A
O1655     Zr1665   2.410       .  S
O1655      C1674   1.280       .  A
O1656     Zr1664   2.397       .  S
O1656      C1675   1.275       .  A
O1657      C1674   1.297       .  A
O1658     Zr1666   2.422       .  S
O1658      C1673   1.281       .  A
O1659     Zr1664   2.384       .  S
O1659     Zr1666   2.379       .  S
O1660     Zr1665   2.363       .  S
O1660     Zr1666   2.365       .  S
O1660      H1695   0.965       .  S
O1661     Zr1664   2.391       .  S
O1661     Zr1681   2.446       .  S
O1661      H1698   0.971       .  S
O1662     Zr1665   2.325       .  S
O1662     Zr1681   2.383       .  S
Zr1663     O1688   2.442       .  S
Zr1663     O1682   2.398       .  S
Zr1663     O1690   2.469       .  S
Zr1663     O1678   2.443       .  S
Zr1663     O1669   2.393       .  S
Zr1663     O1670   2.395       .  S
Zr1663     O1671   2.371       .  S
Zr1663     O1672   2.394       .  S
Zr1664     O1683   2.438   1_554  S
Zr1664     O1676   2.436       .  S
Zr1664     O1677   2.413       .  S
Zr1664     O1670   2.391       .  S
Zr1664     O1671   2.362       .  S
Zr1665     O1667   2.425       .  S
Zr1665     O1689   2.454       .  S
Zr1665     O1691   2.411       .  S
Zr1665     O1669   2.405       .  S
Zr1665     O1672   2.369       .  S
Zr1666     O1692   2.435       .  S
Zr1666     O1693   2.440       .  S
Zr1666     O1668   2.450       .  S
Zr1666     O1669   2.367       .  S
Zr1666     O1670   2.395       .  S
O1667      H1704   0.989       .  S
O1668      H1699   0.989       .  S
O1668      H1713   0.990       .  S
O1670      H1696   0.968       .  S
O1671     Zr1681   2.357       .  S
O1672     Zr1681   2.354       .  S
O1672      H1697   0.965       .  S
C1673      C3653   1.462       .  S
C1674      C3583   1.509       .  S
C1675      C3590   1.491       .  S
O1676      H1712   0.990       .  S
O1677      C1679   1.280       .  A
O1678      C1679   1.291       .  A
C1679      C3603   1.484   1_554  S
O1680     Zr1681   2.434       .  S
O1680      H1709   0.990       .  S
Zr1681     O1684   2.454   1_554  S
Zr1681     O1685   2.432       .  S
Zr1681     O1686   2.557       .  S
O1682      C1687   1.262       .  A
O1683      H1700   0.989       .  S
O1683      H1715   0.991       .  S
O1684      H1701   0.991       .  S
O1685      H1705   0.990       .  S
O1685      H1714   0.989       .  S
O1686      C1687   1.298       .  A
C1687      C3570   1.518       .  S
O1688      H1707   0.989       .  S
O1688      H1711   0.990       .  S
O1689      H1703   0.991       .  S
O1689      H1710   0.990       .  S
O1690      C1694   1.292       .  A
O1691      C1694   1.279       .  A
O1692      H1702   0.989       .  S
O1693      H1706   0.989       .  S
C1694      C3563   1.488       .  S
Zr1717     O1718   2.434       .  S
Zr1717     O1719   2.404       .  S
Zr1717     O1720   2.502       .  S
Zr1717     O1723   2.502       .  S
Zr1717     O1725   2.374       .  S
Zr1717     O1726   2.389       .  S
Zr1717     O1727   2.437       .  S
Zr1717     O1728   2.422       .  S
O1718      H1774   0.990       .  S
O1718      H1782   0.990       .  S
O1719      C1739   1.279       .  A
O1720      C1741   1.297       .  A
O1721     Zr1731   2.367       .  S
O1721      C1740   1.272       .  A
O1722     Zr1730   2.404       .  S
O1722      C1741   1.280       .  A
O1723      C1740   1.298       .  A
O1724     Zr1732   2.446       .  S
O1724      C1739   1.288       .  A
O1725     Zr1730   2.385       .  S
O1725     Zr1732   2.351       .  S
O1726     Zr1731   2.397       .  S
O1726     Zr1732   2.368       .  S
O1726      H1761   0.966       .  S
O1727     Zr1730   2.406       .  S
O1727     Zr1747   2.427       .  S
O1727      H1764   0.968       .  S
O1728     Zr1731   2.399       .  S
O1728     Zr1747   2.425       .  S
Zr1729     O1754   2.429       .  S
Zr1729     O1748   2.387       .  S
Zr1729     O1756   2.380       .  S
Zr1729     O1744   2.370       .  S
Zr1729     O1735   2.378       .  S
Zr1729     O1736   2.379       .  S
Zr1729     O1737   2.368       .  S
Zr1729     O1738   2.362       .  S
Zr1730     O1749   2.437       .  S
Zr1730     O1742   2.434       .  S
Zr1730     O1743   2.459       .  S
Zr1730     O1736   2.390       .  S
Zr1730     O1737   2.370       .  S
Zr1731     O1733   2.434       .  S
Zr1731     O1755   2.437       .  S
Zr1731     O1757   2.444       .  S
Zr1731     O1735   2.377       .  S
Zr1731     O1738   2.352       .  S
Zr1732     O1758   2.436       .  S
Zr1732     O1759   2.437       .  S
Zr1732     O1734   2.435       .  S
Zr1732     O1735   2.401       .  S
Zr1732     O1736   2.397       .  S
O1733      H1770   0.989       .  S
O1734      H1765   0.990       .  S
O1734      H1779   0.990       .  S
O1736      H1762   0.965       .  S
O1737     Zr1747   2.361       .  S
O1738     Zr1747   2.353       .  S
O1738      H1763   0.966       .  S
C1739      C3673   1.481       .  S
C1740      C3540   1.476       .  S
C1741      C3550   1.514       .  S
O1742      H1778   0.990       .  S
O1743      C1745   1.287       .  A
O1744      C1745   1.279       .  A
C1745      C3560   1.491       .  S
O1746     Zr1747   2.436       .  S
O1746      H1775   0.991       .  S
Zr1747     O1750   2.435       .  S
Zr1747     O1751   2.437       .  S
Zr1747     O1752   2.516       .  S
O1748      C1753   1.277       .  A
O1749      H1766   0.991       .  S
O1749      H1781   0.990       .  S
O1750      H1767   0.990       .  S
O1751      H1771   0.991       .  S
O1751      H1780   0.989       .  S
O1752      C1753   1.300       .  A
C1753      C3533   1.491       .  S
O1754      H1773   0.990       .  S
O1754      H1777   0.990       .  S
O1755      H1769   0.991       .  S
O1755      H1776   0.990       .  S
O1756      C1760   1.272       .  A
O1757      C1760   1.285       .  A
O1758      H1768   0.991       .  S
O1759      H1772   0.990       .  S
C1760      C3610   1.488       .  S
Zr1783     O1784   2.434       .  S
Zr1783     O1785   2.423       .  S
Zr1783     O1786   2.555       .  S
Zr1783     O1789   2.540       .  S
Zr1783     O1791   2.388       .  S
Zr1783     O1792   2.373       .  S
Zr1783     O1793   2.447       .  S
Zr1783     O1794   2.390       .  S
O1784      H1840   0.991       .  S
O1784      H1848   0.990       .  S
O1785      C1805   1.282       .  A
O1786      C1807   1.300       .  A
O1787     Zr1797   2.369       .  S
O1787      C1806   1.271       .  A
O1788     Zr1796   2.413       .  S
O1788      C1807   1.272       .  A
O1789      C1806   1.306       .  A
O1790     Zr1798   2.437       .  S
O1790      C1805   1.286       .  A
O1791     Zr1796   2.388       .  S
O1791     Zr1798   2.355       .  S
O1792     Zr1797   2.382       .  S
O1792     Zr1798   2.356       .  S
O1792      H1827   0.960       .  S
O1793     Zr1796   2.405       .  S
O1793     Zr1813   2.443       .  S
O1793      H1830   0.965       .  S
O1794     Zr1797   2.317       .  S
O1794     Zr1813   2.376       .  S
Zr1795     O1820   2.438       .  S
Zr1795     O1814   2.387       .  S
Zr1795     O1822   2.427       .  S
Zr1795     O1810   2.412       .  S
Zr1795     O1801   2.384       .  S
Zr1795     O1802   2.384       .  S
Zr1795     O1803   2.380       .  S
Zr1795     O1804   2.393       .  S
Zr1796     O1815   2.440       .  S
Zr1796     O1808   2.437       .  S
Zr1796     O1809   2.439       .  S
Zr1796     O1802   2.399       .  S
Zr1796     O1803   2.376       .  S
Zr1797     O1799   2.425       .  S
Zr1797     O1821   2.454       .  S
Zr1797     O1823   2.400       .  S
Zr1797     O1801   2.398       .  S
Zr1797     O1804   2.338       .  S
Zr1798     O1824   2.435       .  S
Zr1798     O1825   2.430       .  S
Zr1798     O1800   2.434       .  S
Zr1798     O1801   2.378       .  S
Zr1798     O1802   2.397       .  S
O1799      H1836   0.990       .  S
O1800      H1831   0.991       .  S
O1800      H1845   0.989       .  S
O1802      H1828   0.959       .  S
O1803     Zr1813   2.377       .  S
O1804     Zr1813   2.356       .  S
O1804      H1829   0.964       .  S
C1805      C3470   1.470       .  S
C1806      C3510   1.502       .  S
C1807      C3520   1.539       .  S
O1808      H1844   0.990       .  S
O1809      C1811   1.284       .  A
O1810      C1811   1.283       .  A
C1811      C3480   1.475       .  S
O1812     Zr1813   2.435       .  S
O1812      H1841   0.990       .  S
Zr1813     O1816   2.453       .  S
Zr1813     O1817   2.432       .  S
Zr1813     O1818   2.539       .  S
O1814      C1819   1.260       .  A
O1815      H1832   0.989       .  S
O1815      H1847   0.989       .  S
O1816      H1833   0.990       .  S
O1817      H1837   0.989       .  S
O1817      H1846   0.990       .  S
O1818      C1819   1.295       .  A
C1819      C3500   1.524       .  S
O1820      H1839   0.987       .  S
O1820      H1843   0.989       .  S
O1821      H1835   0.991       .  S
O1821      H1842   0.988       .  S
O1822      C1826   1.282       .  A
O1823      C1826   1.279       .  A
O1824      H1834   0.989       .  S
O1825      H1838   0.989       .  S
C1826      C3490   1.450       .  S
Zr1849     O1850   2.436       .  S
Zr1849     O1851   2.442       .  S
Zr1849     O1852   2.493       .  S
Zr1849     O1855   2.460       .  S
Zr1849     O1857   2.368       .  S
Zr1849     O1858   2.388       .  S
Zr1849     O1859   2.431       .  S
Zr1849     O1860   2.437       .  S
O1850      H1906   0.990       .  S
O1850      H1914   0.990       .  S
O1851      C1871   1.285       .  A
O1852      C1873   1.295       .  A
O1853     Zr1863   2.423       .  S
O1853      C1872   1.284       .  A
O1854     Zr1862   2.394       .  S
O1854      C1873   1.275       .  A
O1855      C1872   1.290       .  A
O1856     Zr1864   2.449       .  S
O1856      C1871   1.288       .  A
O1857     Zr1862   2.394       .  S
O1857     Zr1864   2.366       .  S
O1858     Zr1863   2.396       .  S
O1858     Zr1864   2.345       .  S
O1858      H1893   0.966       .  S
O1859     Zr1862   2.398       .  S
O1859     Zr1879   2.445       .  S
O1859      H1896   0.966       .  S
O1860     Zr1863   2.401       .  S
O1860     Zr1879   2.427       .  S
Zr1861     O1886   2.438       .  S
Zr1861     O1880   2.378       .  S
Zr1861     O1888   2.379       .  S
Zr1861     O1876   2.415       .  S
Zr1861     O1867   2.399       .  S
Zr1861     O1868   2.378       .  S
Zr1861     O1869   2.371       .  S
Zr1861     O1870   2.371       .  S
Zr1862     O1881   2.438       .  S
Zr1862     O1874   2.440       .  S
Zr1862     O1875   2.416       .  S
Zr1862     O1868   2.416       .  S
Zr1862     O1869   2.380       .  S
Zr1863     O1865   2.433       .  S
Zr1863     O1887   2.438       .  S
Zr1863     O1889   2.460       .  S
Zr1863     O1867   2.391       .  S
Zr1863     O1870   2.377       .  S
Zr1864     O1890   2.435       .  S
Zr1864     O1891   2.436       .  S
Zr1864     O1866   2.433       .  S
Zr1864     O1867   2.392       .  S
Zr1864     O1868   2.390       .  S
O1865      H1902   0.990       .  S
O1866      H1897   0.990       .  S
O1866      H1911   0.989       .  S
O1868      H1894   0.951       .  S
O1869     Zr1879   2.367       .  S
O1870     Zr1879   2.367       .  S
O1870      H1895   0.963       .  S
C1871      C3430   1.493       .  S
C1872      C3460   1.497       .  S
C1873      C3450   1.480       .  S
O1874      H1910   0.990       .  S
O1875      C1877   1.274       .  A
O1876      C1877   1.271       .  A
C1877      C3493   1.467       .  S
O1878     Zr1879   2.436       .  S
O1878      H1907   0.990       .  S
Zr1879     O1882   2.435       .  S
Zr1879     O1883   2.441       .  S
Zr1879     O1884   2.500       .  S
O1880      C1885   1.274       .  A
O1881      H1898   0.990       .  S
O1881      H1913   0.990       .  S
O1882      H1899   0.991       .  S
O1883      H1903   0.990       .  S
O1883      H1912   0.990       .  S
O1884      C1885   1.295       .  A
C1885      C3440   1.483       .  S
O1886      H1905   0.990       .  S
O1886      H1909   0.990       .  S
O1887      H1901   0.990       .  S
O1887      H1908   0.990       .  S
O1888      C1892   1.276       .  A
O1889      C1892   1.289       .  A
O1890      H1900   0.990       .  S
O1891      H1904   0.990       .  S
C1892      C3420   1.490       .  S
Zr1915     O1916   2.436       .  S
Zr1915     O1917   2.415       .  S
Zr1915     O1918   2.500       .  S
Zr1915     O1921   2.516       .  S
Zr1915     O1923   2.385       .  S
Zr1915     O1924   2.383       .  S
Zr1915     O1925   2.435       .  S
Zr1915     O1926   2.437       .  S
O1916      H1972   0.990       .  S
O1916      H1980   0.990       .  S
O1917      C1937   1.281       .  A
O1918      C1939   1.298       .  A
O1919     Zr1929   2.428       .  S
O1919      C1938   1.281       .  A
O1920     Zr1928   2.427       .  S
O1920      C1939   1.282       .  A
O1921      C1938   1.301       .  A
O1922     Zr1930   2.408       .  S
O1922      C1937   1.277       .  A
O1923     Zr1928   2.359       .  S
O1923     Zr1930   2.371       .  S
O1924     Zr1929   2.393       .  S
O1924     Zr1930   2.338       .  S
O1924      H1959   0.969       .  S
O1925     Zr1928   2.397       .  S
O1925     Zr1945   2.431       .  S
O1925      H1962   0.986       .  S
O1926     Zr1929   2.375       .  S
O1926     Zr1945   2.446       .  S
Zr1927     O1952   2.436       .  S
Zr1927     O1946   2.354       .  S
Zr1927     O1954   2.451       .  S
Zr1927     O1942   2.469       .  S
Zr1927     O1933   2.383       .  S
Zr1927     O1934   2.396       .  S
Zr1927     O1935   2.377       .  S
Zr1927     O1936   2.395       .  S
Zr1928     O1947   2.439       .  S
Zr1928     O1940   2.437       .  S
Zr1928     O1941   2.403       .  S
Zr1928     O1934   2.392       .  S
Zr1928     O1935   2.377       .  S
Zr1929     O1931   2.437       .  S
Zr1929     O1953   2.444       .  S
Zr1929     O1955   2.411       .  S
Zr1929     O1933   2.406       .  S
Zr1929     O1936   2.373       .  S
Zr1930     O1956   2.438       .  S
Zr1930     O1957   2.434       .  S
Zr1930     O1932   2.434       .  S
Zr1930     O1933   2.384       .  S
Zr1930     O1934   2.368       .  S
O1931      H1968   0.990       .  S
O1932      H1963   0.988       .  S
O1932      H1977   0.990       .  S
O1934      H1960   1.044       .  S
O1935     Zr1945   2.335       .  S
O1936     Zr1945   2.371       .  S
O1936      H1961   0.967       .  S
C1937      C3380   1.450       .  S
C1938      C3410   1.502       .  S
C1939      C3403   1.510       .  S
O1940      H1976   0.990       .  S
O1941      C1943   1.279       .  A
O1942      C1943   1.291       .  A
C1943      C3423   1.491       .  S
O1944     Zr1945   2.437       .  S
O1944      H1973   0.991       .  S
Zr1945     O1948   2.436       .  S
Zr1945     O1949   2.438       .  S
Zr1945     O1950   2.531       .  S
O1946      C1951   1.271       .  A
O1947      H1964   0.989       .  S
O1947      H1979   0.990       .  S
O1948      H1965   0.989       .  S
O1949      H1969   0.990       .  S
O1949      H1978   0.990       .  S
O1950      C1951   1.302       .  A
C1951      C3393   1.492       .  S
O1952      H1971   0.990       .  S
O1952      H1975   0.990       .  S
O1953      H1967   0.992       .  S
O1953      H1974   0.989       .  S
O1954      C1958   1.291       .  A
O1955      C1958   1.278       .  A
O1956      H1966   0.991       .  S
O1957      H1970   0.990       .  S
C1958      C3483   1.483       .  S
Zr1981     O1982   2.438       .  S
Zr1981     O1983   2.492       .  S
Zr1981     O1984   2.457       .  S
Zr1981     O1987   2.453       .  S
Zr1981     O1989   2.375       .  S
Zr1981     O1990   2.388       .  S
Zr1981     O1991   2.425       .  S
Zr1981     O1992   2.431       .  S
O1982      H2038   0.991       .  S
O1982      H2046   0.990       .  S
O1983      C2003   1.293       .  A
O1984      C2005   1.287       .  A
O1985     Zr1995   2.396       .  S
O1985      C2004   1.280       .  A
O1986     Zr1994   2.386       .  S
O1986      C2005   1.276       .  A
O1987      C2004   1.288       .  A
O1988     Zr1996   2.372       .  S
O1988      C2003   1.273       .  A
O1989     Zr1994   2.393       .  S
O1989     Zr1996   2.386       .  S
O1990     Zr1995   2.394       .  S
O1990     Zr1996   2.364       .  S
O1990      H2025   0.960       .  S
O1991     Zr1994   2.387       .  S
O1991     Zr2011   2.418       .  S
O1991      H2028   0.965       .  S
O1992     Zr1995   2.396       .  S
O1992     Zr2011   2.416       .  S
Zr1993     O2018   2.444       .  S
Zr1993     O2012   2.393       .  S
Zr1993     O2020   2.388       .  S
Zr1993     O2008   2.430       .  S
Zr1993     O1999   2.390       .  S
Zr1993     O2000   2.390       .  S
Zr1993     O2001   2.371       .  S
Zr1993     O2002   2.381       .  S
Zr1994     O2013   2.433       .  S
Zr1994     O2006   2.437       .  S
Zr1994     O2007   2.396       .  S
Zr1994     O2000   2.405       .  S
Zr1994     O2001   2.368       .  S
Zr1995     O1997   2.434       .  S
Zr1995     O2019   2.437       .  S
Zr1995     O2021   2.430       .  S
Zr1995     O1999   2.385       .  S
Zr1995     O2002   2.389       .  S
Zr1996     O2022   2.439       .  S
Zr1996     O2023   2.437       .  S
Zr1996     O1998   2.438       .  S
Zr1996     O1999   2.373       .  S
Zr1996     O2000   2.373       .  S
O1997      H2034   0.989       .  S
O1998      H2029   0.990       .  S
O1998      H2043   0.990       .  S
O2000      H2026   0.955       .  S
O2001     Zr2011   2.372       .  S
O2002     Zr2011   2.367       .  S
O2002      H2027   0.968       .  S
C2003      C3433   1.480       .  S
C2004      C3350   1.488       .  S
C2005      C3360   1.477       .  S
O2006      H2042   0.990       .  S
O2007      C2009   1.276       .  A
O2008      C2009   1.282       .  A
C2009      C3383   1.457       .  S
O2010     Zr2011   2.434       .  S
O2010      H2039   0.990       .  S
Zr2011     O2014   2.437       .  S
Zr2011     O2015   2.439       .  S
Zr2011     O2016   2.472       .  S
O2012      C2017   1.276       .  A
O2013      H2030   0.990       .  S
O2013      H2045   0.988       .  S
O2014      H2031   0.990       .  S
O2015      H2035   0.990       .  S
O2015      H2044   0.990       .  S
O2016      C2017   1.289       .  A
C2017      C3370   1.476       .  S
O2018      H2037   0.990       .  S
O2018      H2041   0.991       .  S
O2019      H2033   0.990       .  S
O2019      H2040   0.990       .  S
O2020      C2024   1.279       .  A
O2021      C2024   1.282       .  A
O2022      H2032   0.990       .  S
O2023      H2036   0.990       .  S
C2024      C3473   1.477       .  S
Zr2047     O2048   2.439       .  S
Zr2047     O2049   2.479       .  S
Zr2047     O2050   2.443       .  S
Zr2047     O2053   2.476       .  S
Zr2047     O2055   2.384       .  S
Zr2047     O2056   2.382       .  S
Zr2047     O2057   2.423       .  S
Zr2047     O2058   2.399       .  S
O2048      H2104   0.990       .  S
O2048      H2112   0.989       .  S
O2049      C2069   1.292       .  A
O2050      C2071   1.286       .  A
O2051     Zr2061   2.414       .  S
O2051      C2070   1.280       .  A
O2052     Zr2060   2.451       .  S
O2052      C2071   1.287       .  A
O2053      C2070   1.292       .  A
O2054     Zr2062   2.403       .  S
O2054      C2069   1.276       .  A
O2055     Zr2060   2.405       .  S
O2055     Zr2062   2.386       .  S
O2056     Zr2061   2.397       .  S
O2056     Zr2062   2.381       .  S
O2056      H2091   0.967       .  S
O2057     Zr2060   2.406       .  S
O2057     Zr2077   2.385       .  S
O2057      H2094   0.962       .  S
O2058     Zr2061   2.376       .  S
O2058     Zr2077   2.384       .  S
Zr2059     O2084   2.442       .  S
Zr2059     O2078   2.467       .  S
Zr2059     O2086   2.443       .  S
Zr2059     O2074   2.462       .  S
Zr2059     O2065   2.407       .  S
Zr2059     O2066   2.412       .  S
Zr2059     O2067   2.379       .  S
Zr2059     O2068   2.377       .  S
Zr2060     O2079   2.435       .  S
Zr2060     O2072   2.435       .  S
Zr2060     O2073   2.472       .  S
Zr2060     O2066   2.402       .  S
Zr2060     O2067   2.411       .  S
Zr2061     O2063   2.434       .  S
Zr2061     O2085   2.438       .  S
Zr2061     O2087   2.409       .  S
Zr2061     O2065   2.389       .  S
Zr2061     O2068   2.392       .  S
Zr2062     O2088   2.435       .  S
Zr2062     O2089   2.436       .  S
Zr2062     O2064   2.438       .  S
Zr2062     O2065   2.394       .  S
Zr2062     O2066   2.374       .  S
O2063      H2100   0.990       .  S
O2064      H2095   0.991       .  S
O2064      H2109   0.990       .  S
O2066      H2092   0.960       .  S
O2067     Zr2077   2.390       .  S
O2068     Zr2077   2.365       .  S
O2068      H2093   0.967       .  S
C2069      C3543   1.502       .  S
C2070      C3633   1.492       .  S
C2071      C3683   1.483       .  S
O2072      H2108   0.991       .  S
O2073      C2075   1.292       .  A
O2074      C2075   1.291       .  A
C2075      C3513   1.510       .  S
O2076     Zr2077   2.438       .  S
O2076      H2105   0.990       .  S
Zr2077     O2080   2.436       .  S
Zr2077     O2081   2.441       .  S
Zr2077     O2082   2.416       .  S
O2078      C2083   1.290       .  A
O2079      H2096   0.989       .  S
O2079      H2111   0.990       .  S
O2080      H2097   0.990       .  S
O2081      H2101   0.990       .  S
O2081      H2110   0.990       .  S
O2082      C2083   1.277       .  A
C2083      C3453   1.513       .  S
O2084      H2103   0.990       .  S
O2084      H2107   0.989       .  S
O2085      H2099   0.989       .  S
O2085      H2106   0.990       .  S
O2086      C2090   1.287       .  A
O2087      C2090   1.278       .  A
O2088      H2098   0.990       .  S
O2089      H2102   0.990       .  S
C2090      C3353   1.466       .  S
Zr2113     O2114   2.440       .  S
Zr2113     O2115   2.504       .  S
Zr2113     O2116   2.485       .  S
Zr2113     O2119   2.470       .  S
Zr2113     O2121   2.376       .  S
Zr2113     O2122   2.389       .  S
Zr2113     O2123   2.419   1_554  S
Zr2113     O2124   2.415   1_554  S
O2114      H2170   0.990       .  S
O2114      H2178   0.989       .  S
O2115      C2135   1.296       .  A
O2116      C2137   1.294       .  A
O2117     Zr2127   2.442   1_554  S
O2117      C2136   1.283       .  A
O2118     Zr2126   2.426   1_554  S
O2118      C2137   1.281       .  A
O2119      C2136   1.296       .  A
O2120     Zr2128   2.405       .  S
O2120      C2135   1.277       .  A
O2121     Zr2126   2.396   1_554  S
O2121     Zr2128   2.387       .  S
O2122     Zr2127   2.408   1_554  S
O2122     Zr2128   2.381       .  S
O2122      H2157   0.966       .  S
O2123     Zr2126   2.389       .  S
O2123     Zr2143   2.387       .  S
O2123      H2160   0.962       .  S
O2124     Zr2127   2.392       .  S
O2124     Zr2143   2.397       .  S
Zr2125     O2150   2.433       .  S
Zr2125     O2144   2.468       .  S
Zr2125     O2152   2.460       .  S
Zr2125     O2140   2.478       .  S
Zr2125     O2131   2.408   1_556  S
Zr2125     O2132   2.410   1_556  S
Zr2125     O2133   2.380       .  S
Zr2125     O2134   2.390       .  S
Zr2126     O2145   2.437       .  S
Zr2126     O2138   2.435   1_556  S
Zr2126     O2139   2.410       .  S
Zr2126     O2132   2.402   1_556  S
Zr2126     O2133   2.404       .  S
Zr2127     O2129   2.434       .  S
Zr2127     O2151   2.441   1_556  S
Zr2127     O2153   2.442       .  S
Zr2127     O2131   2.393   1_556  S
Zr2127     O2134   2.404       .  S
Zr2128     O2154   2.436       .  S
Zr2128     O2155   2.436       .  S
Zr2128     O2130   2.438       .  S
Zr2128     O2131   2.391       .  S
Zr2128     O2132   2.386       .  S
O2129      H2166   0.990       .  S
O2130      H2161   0.990       .  S
O2130      H2175   0.990       .  S
O2132      H2158   0.964       .  S
O2133     Zr2143   2.385       .  S
O2134     Zr2143   2.378       .  S
O2134      H2159   0.967       .  S
C2135      C3530   1.501       .  S
C2136      C3573   1.498       .  S
C2137      C3623   1.485       .  S
O2138      H2174   0.990       .  S
O2139      C2141   1.279       .  A
O2140      C2141   1.291       .  A
C2141      C4443   1.478       .  S
O2142     Zr2143   2.439       .  S
O2142      H2171   0.990       .  S
Zr2143     O2146   2.437       .  S
Zr2143     O2147   2.442       .  S
Zr2143     O2148   2.425       .  S
O2144      C2149   1.290       .  A
O2145      H2162   0.990       .  S
O2145      H2177   0.990       .  S
O2146      H2163   0.990       .  S
O2147      H2167   0.990       .  S
O2147      H2176   0.989       .  S
O2148      C2149   1.280       .  A
C2149      C4600   1.494       .  S
O2150      H2169   0.990       .  S
O2150      H2173   0.987       .  S
O2151      H2165   0.990       .  S
O2151      H2172   0.990       .  S
O2152      C2156   1.289       .  A
O2153      C2156   1.286       .  A
O2154      H2164   0.990       .  S
O2155      H2168   0.990       .  S
C2156      C4533   1.495       .  S
Zr2179     O2180   2.436       .  S
Zr2179     O2181   2.419       .  S
Zr2179     O2182   2.489       .  S
Zr2179     O2185   2.477       .  S
Zr2179     O2187   2.379       .  S
Zr2179     O2188   2.388       .  S
Zr2179     O2189   2.426       .  S
Zr2179     O2190   2.431       .  S
O2180      H2236   0.988       .  S
O2180      H2244   0.991       .  S
O2181      C2201   1.280       .  A
O2182      C2203   1.294       .  A
O2183     Zr2193   2.419       .  S
O2183      C2202   1.283       .  A
O2184     Zr2192   2.400       .  S
O2184      C2203   1.277       .  A
O2185      C2202   1.294       .  A
O2186     Zr2194   2.429       .  S
O2186      C2201   1.284       .  A
O2187     Zr2192   2.401       .  S
O2187     Zr2194   2.373       .  S
O2188     Zr2193   2.387       .  S
O2188     Zr2194   2.348       .  S
O2188      H2223   0.966       .  S
O2189     Zr2192   2.399       .  S
O2189     Zr2209   2.428       .  S
O2189      H2226   0.965       .  S
O2190     Zr2193   2.409       .  S
O2190     Zr2209   2.423       .  S
Zr2191     O2216   2.436       .  S
Zr2191     O2210   2.395       .  S
Zr2191     O2218   2.374       .  S
Zr2191     O2206   2.415       .  S
Zr2191     O2197   2.403       .  S
Zr2191     O2198   2.388       .  S
Zr2191     O2199   2.369       .  S
Zr2191     O2200   2.378       .  S
Zr2192     O2211   2.432       .  S
Zr2192     O2204   2.439       .  S
Zr2192     O2205   2.434       .  S
Zr2192     O2198   2.406       .  S
Zr2192     O2199   2.371       .  S
Zr2193     O2195   2.434       .  S
Zr2193     O2217   2.436       .  S
Zr2193     O2219   2.455       .  S
Zr2193     O2197   2.385       .  S
Zr2193     O2200   2.363       .  S
Zr2194     O2220   2.439       .  S
Zr2194     O2221   2.436       .  S
Zr2194     O2196   2.434       .  S
Zr2194     O2197   2.399       .  S
Zr2194     O2198   2.380       .  S
O2195      H2232   0.989       .  S
O2196      H2227   0.990       .  S
O2196      H2241   0.990       .  S
O2198      H2224   0.967       .  S
O2199     Zr2209   2.379       .  S
O2200     Zr2209   2.347       .  S
O2200      H2225   0.968       .  S
C2201      C3290   1.483       .  S
C2202      C3333   1.490       .  S
C2203      C3343   1.500       .  S
O2204      H2240   0.990       .  S
O2205      C2207   1.282       .  A
O2206      C2207   1.277       .  A
C2207      C3310   1.482       .  S
O2208     Zr2209   2.434       .  S
O2208      H2237   0.990       .  S
Zr2209     O2212   2.435       .  S
Zr2209     O2213   2.438       .  S
Zr2209     O2214   2.490       .  S
O2210      C2215   1.279       .  A
O2211      H2228   0.990       .  S
O2211      H2243   0.990       .  S
O2212      H2229   0.991       .  S
O2213      H2233   0.990       .  S
O2213      H2242   0.991       .  S
O2214      C2215   1.294       .  A
C2215      C3320   1.486       .  S
O2216      H2235   0.989       .  S
O2216      H2239   0.990       .  S
O2217      H2231   0.990       .  S
O2217      H2238   0.990       .  S
O2218      C2222   1.272       .  A
O2219      C2222   1.291       .  A
O2220      H2230   0.991       .  S
O2221      H2234   0.989       .  S
C2222      C3300   1.475       .  S
Zr2245     O2246   2.436       .  S
Zr2245     O2247   2.469       .  S
Zr2245     O2248   2.467       .  S
Zr2245     O2251   2.451       .  S
Zr2245     O2253   2.384       .  S
Zr2245     O2254   2.384       .  S
Zr2245     O2255   2.432       .  S
Zr2245     O2256   2.420       .  S
O2246      H2302   0.991       .  S
O2246      H2310   0.989       .  S
O2247      C2267   1.289       .  A
O2248      C2269   1.290       .  A
O2249     Zr2259   2.423       .  S
O2249      C2268   1.284       .  A
O2250     Zr2258   2.390       .  S
O2250      C2269   1.276       .  A
O2251      C2268   1.287       .  A
O2252     Zr2260   2.393       .  S
O2252      C2267   1.275       .  A
O2253     Zr2258   2.405       .  S
O2253     Zr2260   2.376       .  S
O2254     Zr2259   2.375       .  S
O2254     Zr2260   2.365       .  S
O2254      H2289   0.962       .  S
O2255     Zr2258   2.405       .  S
O2255     Zr2275   2.424       .  S
O2255      H2292   0.964       .  S
O2256     Zr2259   2.397       .  S
O2256     Zr2275   2.417       .  S
Zr2257     O2282   2.436       .  S
Zr2257     O2276   2.394       .  S
Zr2257     O2284   2.427       .  S
Zr2257     O2272   2.396       .  S
Zr2257     O2263   2.405       .  S
Zr2257     O2264   2.392       .  S
Zr2257     O2265   2.379       .  S
Zr2257     O2266   2.383       .  S
Zr2258     O2277   2.433   1_545  S
Zr2258     O2270   2.436       .  S
Zr2258     O2271   2.455       .  S
Zr2258     O2264   2.393       .  S
Zr2258     O2265   2.372       .  S
Zr2259     O2261   2.430   1_455  S
Zr2259     O2283   2.438       .  S
Zr2259     O2285   2.428       .  S
Zr2259     O2263   2.395       .  S
Zr2259     O2266   2.365       .  S
Zr2260     O2286   2.436       .  S
Zr2260     O2287   2.436       .  S
Zr2260     O2262   2.440       .  S
Zr2260     O2263   2.400       .  S
Zr2260     O2264   2.358       .  S
O2261      H2298   0.989       .  S
O2262      H2293   0.991       .  S
O2262      H2307   0.989       .  S
O2264      H2290   0.962       .  S
O2265     Zr2275   2.385       .  S
O2266     Zr2275   2.371       .  S
O2266      H2291   0.962       .  S
C2267      C3293   1.474       .  S
C2268      C3283   1.498   1_455  S
C2269      C3260   1.490       .  S
O2270      H2306   0.991       .  S
O2271      C2273   1.286       .  A
O2272      C2273   1.281       .  A
C2273      C3253   1.476   1_545  S
O2274     Zr2275   2.436   1_655  S
O2274      H2303   0.990       .  S
Zr2275     O2278   2.434   1_545  S
Zr2275     O2279   2.440   1_455  S
Zr2275     O2280   2.474   1_455  S
O2276      C2281   1.268       .  A
O2277      H2294   0.990       .  S
O2277      H2309   0.989       .  S
O2278      H2295   0.990       .  S
O2279      H2299   0.990       .  S
O2279      H2308   0.990       .  S
O2280      C2281   1.283   1_655  A
C2281      C3273   1.486   1_445  S
O2282      H2301   0.990       .  S
O2282      H2305   0.989       .  S
O2283      H2297   0.990       .  S
O2283      H2304   0.990       .  S
O2284      C2288   1.282       .  A
O2285      C2288   1.286       .  A
O2286      H2296   0.991       .  S
O2287      H2300   0.990       .  S
C2288      C3240   1.487       .  S
Zr2311     O2312   2.432       .  S
Zr2311     O2313   2.381       .  S
Zr2311     O2314   2.529       .  S
Zr2311     O2317   2.566       .  S
Zr2311     O2319   2.390       .  S
Zr2311     O2320   2.360       .  S
Zr2311     O2321   2.446       .  S
Zr2311     O2322   2.426       .  S
O2312      H2368   0.991       .  S
O2312      H2376   0.990       .  S
O2313      C2333   1.275       .  A
O2314      C2335   1.305       .  A
O2315     Zr2325   2.380       .  S
O2315      C2334   1.272       .  A
O2316     Zr2324   2.392       .  S
O2316      C2335   1.277       .  A
O2317      C2334   1.310       .  A
O2318     Zr2326   2.479       .  S
O2318      C2333   1.295       .  A
O2319     Zr2324   2.388       .  S
O2319     Zr2326   2.345       .  S
O2320     Zr2325   2.374       .  S
O2320     Zr2326   2.341       .  S
O2320      H2355   0.977       .  S
O2321     Zr2324   2.393       .  S
O2321     Zr2341   2.420       .  S
O2321      H2358   0.966       .  S
O2322     Zr2325   2.383       .  S
O2322     Zr2341   2.440       .  S
Zr2323     O2348   2.440       .  S
Zr2323     O2342   2.385       .  S
Zr2323     O2350   2.436       .  S
Zr2323     O2338   2.408       .  S
Zr2323     O2329   2.383       .  S
Zr2323     O2330   2.406       .  S
Zr2323     O2331   2.380       .  S
Zr2323     O2332   2.371       .  S
Zr2324     O2343   2.435   1_455  S
Zr2324     O2336   2.434       .  S
Zr2324     O2337   2.421       .  S
Zr2324     O2330   2.398       .  S
Zr2324     O2331   2.351       .  S
Zr2325     O2327   2.433   1_554  S
Zr2325     O2349   2.441       .  S
Zr2325     O2351   2.389   1_554  S
Zr2325     O2329   2.398       .  S
Zr2325     O2332   2.365       .  S
Zr2326     O2352   2.432       .  S
Zr2326     O2353   2.434       .  S
Zr2326     O2328   2.436       .  S
Zr2326     O2329   2.418       .  S
Zr2326     O2330   2.390       .  S
O2327      H2364   0.989       .  S
O2328      H2359   0.990       .  S
O2328      H2373   0.990       .  S
O2330      H2356   0.964       .  S
O2331     Zr2341   2.347       .  S
O2332     Zr2341   2.366       .  S
O2332      H2357   0.966       .  S
C2333      C3313   1.471       .  S
C2334      C3213   1.507       .  S
C2335      C3233   1.511       .  S
O2336      H2372   0.990   1_455  S
O2337      C2339   1.282       .  A
O2338      C2339   1.279       .  A
C2339      C3243   1.485       .  S
O2340     Zr2341   2.437   1_655  S
O2340      H2369   0.990   1_655  S
Zr2341     O2344   2.434   1_455  S
Zr2341     O2345   2.440   1_554  S
Zr2341     O2346   2.507   1_455  S
O2342      C2347   1.274   1_455  A
O2343      H2360   0.990       .  S
O2343      H2375   0.990       .  S
O2344      H2361   0.989       .  S
O2345      H2365   0.989       .  S
O2345      H2374   0.991   1_455  S
O2346      C2347   1.297       .  A
C2347      C3223   1.492       .  S
O2348      H2367   0.991       .  S
O2348      H2371   0.990       .  S
O2349      H2363   0.989       .  S
O2349      H2370   0.990       .  S
O2350      C2354   1.287   1_554  A
O2351      C2354   1.274       .  A
O2352      H2362   0.990       .  S
O2353      H2366   0.989       .  S
C2354      C3203   1.475       .  S
Zr2377     O2378   2.433   1_545  S
Zr2377     O2379   2.437       .  S
Zr2377     O2380   2.475       .  S
Zr2377     O2383   2.476   1_545  S
Zr2377     O2385   2.377       .  S
Zr2377     O2386   2.386       .  S
Zr2377     O2387   2.431       .  S
Zr2377     O2388   2.432       .  S
O2378      H2434   0.990       .  S
O2378      H2442   0.990       .  S
O2379      C2399   1.285       .  A
O2380      C2401   1.292       .  A
O2381     Zr2391   2.406       .  S
O2381      C2400   1.272   1_545  A
O2382     Zr2390   2.434       .  S
O2382      C2401   1.286       .  A
O2383      C2400   1.288       .  A
O2384     Zr2392   2.407       .  S
O2384      C2399   1.278       .  A
O2385     Zr2390   2.371       .  S
O2385     Zr2392   2.362       .  S
O2386     Zr2391   2.387       .  S
O2386     Zr2392   2.366       .  S
O2386      H2421   0.960       .  S
O2387     Zr2390   2.393       .  S
O2387     Zr2407   2.426       .  S
O2387      H2424   0.962       .  S
O2388     Zr2391   2.393       .  S
O2388     Zr2407   2.432       .  S
Zr2389     O2414   2.438       .  S
Zr2389     O2408   2.390       .  S
Zr2389     O2416   2.441       .  S
Zr2389     O2404   2.405       .  S
Zr2389     O2395   2.378       .  S
Zr2389     O2396   2.405       .  S
Zr2389     O2397   2.376       .  S
Zr2389     O2398   2.375       .  S
Zr2390     O2409   2.439       .  S
Zr2390     O2402   2.435       .  S
Zr2390     O2403   2.418       .  S
Zr2390     O2396   2.405       .  S
Zr2390     O2397   2.368       .  S
Zr2391     O2393   2.432   1_554  S
Zr2391     O2415   2.439       .  S
Zr2391     O2417   2.399       .  S
Zr2391     O2395   2.389       .  S
Zr2391     O2398   2.379       .  S
Zr2392     O2418   2.437       .  S
Zr2392     O2419   2.430       .  S
Zr2392     O2394   2.437       .  S
Zr2392     O2395   2.395       .  S
Zr2392     O2396   2.384       .  S
O2393      H2430   0.989       .  S
O2394      H2425   0.990       .  S
O2394      H2439   0.991       .  S
O2396      H2422   0.967       .  S
O2397     Zr2407   2.336       .  S
O2398     Zr2407   2.375       .  S
O2398      H2423   0.966       .  S
C2399      C3250   1.465       .  S
C2400      C3190   1.511       .  S
C2401      C3180   1.514       .  S
O2402      H2438   0.990       .  S
O2403      C2405   1.284       .  A
O2404      C2405   1.280       .  A
C2405      C3303   1.477       .  S
O2406     Zr2407   2.434       .  S
O2406      H2435   0.990       .  S
Zr2407     O2410   2.436       .  S
Zr2407     O2411   2.437   1_554  S
Zr2407     O2412   2.497       .  S
O2408      C2413   1.276       .  A
O2409      H2426   0.989       .  S
O2409      H2441   0.989       .  S
O2410      H2427   0.991       .  S
O2411      H2431   0.990       .  S
O2411      H2440   0.988       .  S
O2412      C2413   1.294       .  A
C2413      C3173   1.492       .  S
O2414      H2433   0.990       .  S
O2414      H2437   0.990       .  S
O2415      H2429   0.988       .  S
O2415      H2436   0.990       .  S
O2416      C2420   1.287       .  A
O2417      C2420   1.276       .  A
O2418      H2428   0.991       .  S
O2419      H2432   0.989       .  S
C2420      C3200   1.484   1_554  S
Zr2443     O2444   2.445       .  S
Zr2443     O2445   2.492       .  S
Zr2443     O2446   2.449       .  S
Zr2443     O2449   2.460       .  S
Zr2443     O2451   2.389       .  S
Zr2443     O2452   2.388   1_556  S
Zr2443     O2453   2.422       .  S
Zr2443     O2454   2.399       .  S
O2444      H2500   0.990       .  S
O2444      H2508   0.991       .  S
O2445      C2465   1.294       .  A
O2446      C2467   1.285       .  A
O2447     Zr2457   2.459       .  S
O2447      C2466   1.291   1_554  A
O2448     Zr2456   2.495       .  S
O2448      C2467   1.296       .  A
O2449      C2466   1.289       .  A
O2450     Zr2458   2.390   1_556  S
O2450      C2465   1.273       .  A
O2451     Zr2456   2.419       .  S
O2451     Zr2458   2.394   1_556  S
O2452     Zr2457   2.409       .  S
O2452     Zr2458   2.383       .  S
O2452      H2487   0.963       .  S
O2453     Zr2456   2.411       .  S
O2453     Zr2473   2.388       .  S
O2453      H2490   0.960       .  S
O2454     Zr2457   2.385   1_556  S
O2454     Zr2473   2.381       .  S
Zr2455     O2480   2.439       .  S
Zr2455     O2474   2.471       .  S
Zr2455     O2482   2.443       .  S
Zr2455     O2470   2.420       .  S
Zr2455     O2461   2.399       .  S
Zr2455     O2462   2.421       .  S
Zr2455     O2463   2.381   1_554  S
Zr2455     O2464   2.374       .  S
Zr2456     O2475   2.436       .  S
Zr2456     O2468   2.435       .  S
Zr2456     O2469   2.504       .  S
Zr2456     O2462   2.405   1_556  S
Zr2456     O2463   2.417       .  S
Zr2457     O2459   2.435       .  S
Zr2457     O2481   2.439       .  S
Zr2457     O2483   2.460       .  S
Zr2457     O2461   2.394       .  S
Zr2457     O2464   2.406       .  S
Zr2458     O2484   2.435       .  S
Zr2458     O2485   2.436       .  S
Zr2458     O2460   2.439       .  S
Zr2458     O2461   2.389       .  S
Zr2458     O2462   2.379       .  S
O2459      H2496   0.990       .  S
O2460      H2491   0.991       .  S
O2460      H2505   0.990   1_554  S
O2462      H2488   0.966       .  S
O2463     Zr2473   2.384       .  S
O2464     Zr2473   2.378   1_554  S
O2464      H2489   0.966       .  S
C2465      C4413   1.490       .  S
C2466      C4263   1.502       .  S
C2467      C4310   1.501       .  S
O2468      H2504   0.990       .  S
O2469      C2471   1.297       .  A
O2470      C2471   1.283   1_554  A
C2471      C3210   1.504   1_556  S
O2472     Zr2473   2.433       .  S
O2472      H2501   0.989       .  S
Zr2473     O2476   2.438       .  S
Zr2473     O2477   2.438       .  S
Zr2473     O2478   2.410       .  S
O2474      C2479   1.288       .  A
O2475      H2492   0.990       .  S
O2475      H2507   0.990       .  S
O2476      H2493   0.989       .  S
O2477      H2497   0.990       .  S
O2477      H2506   0.991       .  S
O2478      C2479   1.277   1_556  A
C2479      C3170   1.488       .  S
O2480      H2499   0.990       .  S
O2480      H2503   0.990       .  S
O2481      H2495   0.990       .  S
O2481      H2502   0.990       .  S
O2482      C2486   1.284       .  A
O2483      C2486   1.289       .  A
O2484      H2494   0.990       .  S
O2485      H2498   0.990       .  S
C2486      C3323   1.487       .  S
Zr2509     O2510   2.442       .  S
Zr2509     O2511   2.445       .  S
Zr2509     O2512   2.451       .  S
Zr2509     O2515   2.462       .  S
Zr2509     O2517   2.378       .  S
Zr2509     O2518   2.386       .  S
Zr2509     O2519   2.411   1_545  S
Zr2509     O2520   2.400   1_545  S
O2510      H2566   0.991       .  S
O2510      H2574   0.990       .  S
O2511      C2531   1.283       .  A
O2512      C2533   1.287       .  A
O2513     Zr2523   2.439   1_545  S
O2513      C2532   1.286       .  A
O2514     Zr2522   2.431   1_545  S
O2514      C2533   1.284       .  A
O2515      C2532   1.290       .  A
O2516     Zr2524   2.431       .  S
O2516      C2531   1.280       .  A
O2517     Zr2522   2.408   1_545  S
O2517     Zr2524   2.369       .  S
O2518     Zr2523   2.401   1_545  S
O2518     Zr2524   2.374       .  S
O2518      H2553   0.969       .  S
O2519     Zr2522   2.412       .  S
O2519     Zr2539   2.394       .  S
O2519      H2556   0.966       .  S
O2520     Zr2523   2.398       .  S
O2520     Zr2539   2.381       .  S
Zr2521     O2546   2.440       .  S
Zr2521     O2540   2.494       .  S
Zr2521     O2548   2.447       .  S
Zr2521     O2536   2.444       .  S
Zr2521     O2527   2.406   1_565  S
Zr2521     O2528   2.425   1_565  S
Zr2521     O2529   2.372       .  S
Zr2521     O2530   2.384       .  S
Zr2522     O2541   2.437       .  S
Zr2522     O2534   2.433   1_565  S
Zr2522     O2535   2.454       .  S
Zr2522     O2528   2.392   1_565  S
Zr2522     O2529   2.391       .  S
Zr2523     O2525   2.436       .  S
Zr2523     O2547   2.438   1_565  S
Zr2523     O2549   2.455       .  S
Zr2523     O2527   2.379   1_565  S
Zr2523     O2530   2.400       .  S
Zr2524     O2550   2.434       .  S
Zr2524     O2551   2.433       .  S
Zr2524     O2526   2.439       .  S
Zr2524     O2527   2.394       .  S
Zr2524     O2528   2.409       .  S
O2525      H2562   0.990       .  S
O2526      H2557   0.989       .  S
O2526      H2571   0.991       .  S
O2528      H2554   0.963       .  S
O2529     Zr2539   2.389       .  S
O2530     Zr2539   2.399       .  S
O2530      H2555   0.964       .  S
C2531      C3330   1.515       .  S
C2532      C3183   1.489       .  S
C2533      C3263   1.477       .  S
O2534      H2570   0.990       .  S
O2535      C2537   1.287       .  A
O2536      C2537   1.284       .  A
C2537      C3943   1.486       .  S
O2538     Zr2539   2.440       .  S
O2538      H2567   0.990       .  S
Zr2539     O2542   2.439       .  S
Zr2539     O2543   2.438       .  S
Zr2539     O2544   2.392       .  S
O2540      C2545   1.295       .  A
O2541      H2558   0.991       .  S
O2541      H2573   0.990       .  S
O2542      H2559   0.991       .  S
O2543      H2563   0.990       .  S
O2543      H2572   0.990       .  S
O2544      C2545   1.275       .  A
C2545      C4060   1.492       .  S
O2546      H2565   0.990       .  S
O2546      H2569   0.990       .  S
O2547      H2561   0.990       .  S
O2547      H2568   0.989       .  S
O2548      C2552   1.285       .  A
O2549      C2552   1.288       .  A
O2550      H2560   0.989       .  S
O2551      H2564   0.988       .  S
C2552      C3900   1.490       .  S
Zr2575     O2576   2.431       .  S
Zr2575     O2577   2.478       .  S
Zr2575     O2578   2.493   1_455  S
Zr2575     O2581   2.487   1_545  S
Zr2575     O2583   2.392   1_445  S
Zr2575     O2584   2.385   1_545  S
Zr2575     O2585   2.413   1_454  S
Zr2575     O2586   2.408   1_544  S
O2576      H2632   0.987       .  S
O2576      H2640   0.990       .  S
O2577      C2597   1.292   1_445  A
O2578      C2599   1.296       .  A
O2579     Zr2589   2.395       .  S
O2579      C2598   1.275       .  A
O2580     Zr2588   2.461       .  S
O2580      C2599   1.290       .  A
O2581      C2598   1.294       .  A
O2582     Zr2590   2.389       .  S
O2582      C2597   1.275       .  A
O2583     Zr2588   2.410   1_565  S
O2583     Zr2590   2.392       .  S
O2584     Zr2589   2.385       .  S
O2584     Zr2590   2.381   1_455  S
O2584      H2619   0.965       .  S
O2585     Zr2588   2.401   1_556  S
O2585     Zr2605   2.370   1_645  S
O2585      H2622   0.967       .  S
O2586     Zr2589   2.381   1_556  S
O2586     Zr2605   2.397       .  S
Zr2587     O2612   2.442       .  S
Zr2587     O2606   2.434       .  S
Zr2587     O2614   2.456       .  S
Zr2587     O2602   2.475       .  S
Zr2587     O2593   2.405   1_556  S
Zr2587     O2594   2.404   1_556  S
Zr2587     O2595   2.384       .  S
Zr2587     O2596   2.385   1_655  S
Zr2588     O2607   2.434   1_554  S
Zr2588     O2600   2.436       .  S
Zr2588     O2601   2.455   1_544  S
Zr2588     O2594   2.404   1_545  S
Zr2588     O2595   2.403   1_544  S
Zr2589     O2591   2.437   1_554  S
Zr2589     O2613   2.439       .  S
Zr2589     O2615   2.374   1_554  S
Zr2589     O2593   2.394   1_455  S
Zr2589     O2596   2.394   1_554  S
Zr2590     O2616   2.434       .  S
Zr2590     O2617   2.438       .  S
Zr2590     O2592   2.441       .  S
Zr2590     O2593   2.392       .  S
Zr2590     O2594   2.365       .  S
O2591      H2628   0.991       .  S
O2592      H2623   0.991       .  S
O2592      H2637   0.989       .  S
O2594      H2620   0.961       .  S
O2595     Zr2605   2.384   1_655  S
O2596     Zr2605   2.368       .  S
O2596      H2621   0.965       .  S
C2597      C3270   1.479       .  S
C2598      C3193   1.483       .  S
C2599      C3220   1.499       .  S
O2600      H2636   0.990       .  S
O2601      C2603   1.290       .  A
O2602      C2603   1.293       .  A
C2603      C4543   1.501       .  S
O2604     Zr2605   2.434   1_545  S
O2604      H2633   0.991       .  S
Zr2605     O2608   2.437   1_465  S
Zr2605     O2609   2.434       .  S
Zr2605     O2610   2.417   1_455  S
O2606      C2611   1.284       .  A
O2607      H2624   0.990       .  S
O2607      H2639   0.989       .  S
O2608      H2625   0.990       .  S
O2609      H2629   0.990       .  S
O2609      H2638   0.989       .  S
O2610      C2611   1.279       .  A
C2611      C4493   1.482       .  S
O2612      H2631   0.991       .  S
O2612      H2635   0.990       .  S
O2613      H2627   0.990       .  S
O2613      H2634   0.990       .  S
O2614      C2618   1.288   1_655  A
O2615      C2618   1.271       .  A
O2616      H2626   0.990       .  S
O2617      H2630   0.991       .  S
C2618      C4453   1.454       .  S
Zr2641     O2642   2.435       .  S
Zr2641     O2643   2.464       .  S
Zr2641     O2644   2.442   1_455  S
Zr2641     O2647   2.427       .  S
Zr2641     O2649   2.379   1_455  S
Zr2641     O2650   2.381       .  S
Zr2641     O2651   2.414   1_455  S
Zr2641     O2652   2.394       .  S
O2642      H2698   0.989       .  S
O2642      H2706   0.990       .  S
O2643      C2663   1.288       .  A
O2644      C2665   1.284       .  A
O2645     Zr2655   2.477       .  S
O2645      C2664   1.293       .  A
O2646     Zr2654   2.435       .  S
O2646      C2665   1.284       .  A
O2647      C2664   1.283       .  A
O2648     Zr2656   2.424       .  S
O2648      C2663   1.280   1_655  A
O2649     Zr2654   2.407       .  S
O2649     Zr2656   2.382       .  S
O2650     Zr2655   2.402       .  S
O2650     Zr2656   2.385   1_455  S
O2650      H2685   0.964       .  S
O2651     Zr2654   2.396       .  S
O2651     Zr2671   2.397       .  S
O2651      H2688   0.960       .  S
O2652     Zr2655   2.379       .  S
O2652     Zr2671   2.387   1_455  S
Zr2653     O2678   2.444       .  S
Zr2653     O2672   2.491       .  S
Zr2653     O2680   2.449       .  S
Zr2653     O2668   2.457       .  S
Zr2653     O2659   2.401       .  S
Zr2653     O2660   2.424       .  S
Zr2653     O2661   2.380       .  S
Zr2653     O2662   2.391       .  S
Zr2654     O2673   2.434       .  S
Zr2654     O2666   2.435       .  S
Zr2654     O2667   2.426       .  S
Zr2654     O2660   2.400       .  S
Zr2654     O2661   2.407       .  S
Zr2655     O2657   2.435       .  S
Zr2655     O2679   2.439       .  S
Zr2655     O2681   2.454   1_455  S
Zr2655     O2659   2.388   1_455  S
Zr2655     O2662   2.415   1_455  S
Zr2656     O2682   2.435       .  S
Zr2656     O2683   2.434       .  S
Zr2656     O2658   2.440       .  S
Zr2656     O2659   2.384       .  S
Zr2656     O2660   2.398       .  S
O2657      H2694   0.989       .  S
O2658      H2689   0.989       .  S
O2658      H2703   0.990       .  S
O2660      H2686   0.962       .  S
O2661     Zr2671   2.384       .  S
O2662     Zr2671   2.386       .  S
O2662      H2687   0.966       .  S
C2663      C3230   1.504       .  S
C2664      C3340   1.503       .  S
C2665      C3280   1.479       .  S
O2666      H2702   0.990       .  S
O2667      C2669   1.283       .  A
O2668      C2669   1.289       .  A
C2669      C3463   1.484       .  S
O2670     Zr2671   2.432   1_455  S
O2670      H2699   0.990       .  S
Zr2671     O2674   2.436       .  S
Zr2671     O2675   2.437   1_655  S
Zr2671     O2676   2.429       .  S
O2672      C2677   1.293       .  A
O2673      H2690   0.990       .  S
O2673      H2705   0.990       .  S
O2674      H2691   0.988       .  S
O2675      H2695   0.990       .  S
O2675      H2704   0.990       .  S
O2676      C2677   1.282       .  A
C2677      C3400   1.507       .  S
O2678      H2697   0.990       .  S
O2678      H2701   0.990       .  S
O2679      H2693   0.990       .  S
O2679      H2700   0.990       .  S
O2680      C2684   1.287       .  A
O2681      C2684   1.288       .  A
O2682      H2692   0.990       .  S
O2683      H2696   0.990       .  S
C2684      C3363   1.488       .  S
Zr2707     O2708   2.443       .  S
Zr2707     O2709   2.471       .  S
Zr2707     O2710   2.482       .  S
Zr2707     O2713   2.462       .  S
Zr2707     O2715   2.386       .  S
Zr2707     O2716   2.386       .  S
Zr2707     O2717   2.417       .  S
Zr2707     O2718   2.407       .  S
O2708      H2764   0.990       .  S
O2708      H2772   0.990       .  S
O2709      C2729   1.290       .  A
O2710      C2731   1.294       .  A
O2711     Zr2721   2.445       .  S
O2711      C2730   1.286       .  A
O2712     Zr2720   2.470       .  S
O2712      C2731   1.290       .  A
O2713      C2730   1.291       .  A
O2714     Zr2722   2.393       .  S
O2714      C2729   1.276       .  A
O2715     Zr2720   2.409       .  S
O2715     Zr2722   2.386       .  S
O2716     Zr2721   2.385       .  S
O2716     Zr2722   2.383       .  S
O2716      H2751   0.966       .  S
O2717     Zr2720   2.406       .  S
O2717     Zr2737   2.382       .  S
O2717      H2754   0.965       .  S
O2718     Zr2721   2.391       .  S
O2718     Zr2737   2.389       .  S
Zr2719     O2744   2.439       .  S
Zr2719     O2738   2.487       .  S
Zr2719     O2746   2.472       .  S
Zr2719     O2734   2.486       .  S
Zr2719     O2725   2.404       .  S
Zr2719     O2726   2.422       .  S
Zr2719     O2727   2.390       .  S
Zr2719     O2728   2.388       .  S
Zr2720     O2739   2.437       .  S
Zr2720     O2732   2.435       .  S
Zr2720     O2733   2.468       .  S
Zr2720     O2726   2.406       .  S
Zr2720     O2727   2.416       .  S
Zr2721     O2723   2.437       .  S
Zr2721     O2745   2.440       .  S
Zr2721     O2747   2.433       .  S
Zr2721     O2725   2.393       .  S
Zr2721     O2728   2.395       .  S
Zr2722     O2748   2.433       .  S
Zr2722     O2749   2.439       .  S
Zr2722     O2724   2.441       .  S
Zr2722     O2725   2.392       .  S
Zr2722     O2726   2.378       .  S
O2723      H2760   0.990       .  S
O2724      H2755   0.990       .  S
O2724      H2769   0.990       .  S
O2726      H2752   0.965       .  S
O2727     Zr2737   2.391       .  S
O2728     Zr2737   2.379       .  S
O2728      H2753   0.968       .  S
C2729      C4043   1.486       .  S
C2730      C3983   1.496       .  S
C2731      C3893   1.509       .  S
O2732      H2768   0.990       .  S
O2733      C2735   1.292       .  A
O2734      C2735   1.294       .  A
C2735      C3580   1.512       .  S
O2736     Zr2737   2.438       .  S
O2736      H2765   0.990       .  S
Zr2737     O2740   2.436       .  S
Zr2737     O2741   2.439       .  S
Zr2737     O2742   2.409       .  S
O2738      C2743   1.292       .  A
O2739      H2756   0.991       .  S
O2739      H2771   0.991       .  S
O2740      H2757   0.990       .  S
O2741      H2761   0.990       .  S
O2741      H2770   0.990       .  S
O2742      C2743   1.278       .  A
C2743      C3553   1.490       .  S
O2744      H2763   0.989       .  S
O2744      H2767   0.990       .  S
O2745      H2759   0.990       .  S
O2745      H2766   0.990       .  S
O2746      C2750   1.293       .  A
O2747      C2750   1.284       .  A
O2748      H2758   0.990       .  S
O2749      H2762   0.990       .  S
C2750      C3693   1.490       .  S
Zr2773     O2774   2.438       .  S
Zr2773     O2775   2.524       .  S
Zr2773     O2776   2.498       .  S
Zr2773     O2779   2.470       .  S
Zr2773     O2781   2.381       .  S
Zr2773     O2782   2.391       .  S
Zr2773     O2783   2.429   1_455  S
Zr2773     O2784   2.424   1_455  S
O2774      H2830   0.990       .  S
O2774      H2838   0.991       .  S
O2775      C2795   1.301       .  A
O2776      C2797   1.295   1_455  A
O2777     Zr2787   2.428       .  S
O2777      C2796   1.281       .  A
O2778     Zr2786   2.484       .  S
O2778      C2797   1.292       .  A
O2779      C2796   1.292   1_455  A
O2780     Zr2788   2.384       .  S
O2780      C2795   1.272       .  A
O2781     Zr2786   2.401   1_455  S
O2781     Zr2788   2.397       .  S
O2782     Zr2787   2.402   1_455  S
O2782     Zr2788   2.382       .  S
O2782      H2817   0.961       .  S
O2783     Zr2786   2.395       .  S
O2783     Zr2803   2.414       .  S
O2783      H2820   0.965       .  S
O2784     Zr2787   2.390       .  S
O2784     Zr2803   2.407       .  S
Zr2785     O2810   2.440       .  S
Zr2785     O2804   2.485       .  S
Zr2785     O2812   2.475       .  S
Zr2785     O2800   2.463       .  S
Zr2785     O2791   2.401       .  S
Zr2785     O2792   2.421       .  S
Zr2785     O2793   2.393       .  S
Zr2785     O2794   2.386       .  S
Zr2786     O2805   2.440       .  S
Zr2786     O2798   2.435   1_655  S
Zr2786     O2799   2.439       .  S
Zr2786     O2792   2.413       .  S
Zr2786     O2793   2.422       .  S
Zr2787     O2789   2.438       .  S
Zr2787     O2811   2.438   1_655  S
Zr2787     O2813   2.425       .  S
Zr2787     O2791   2.394       .  S
Zr2787     O2794   2.405       .  S
Zr2788     O2814   2.436       .  S
Zr2788     O2815   2.434       .  S
Zr2788     O2790   2.439       .  S
Zr2788     O2791   2.379   1_455  S
Zr2788     O2792   2.374   1_455  S
O2789      H2826   0.990       .  S
O2790      H2821   0.989       .  S
O2790      H2835   0.989       .  S
O2792      H2818   0.962       .  S
O2793     Zr2803   2.372       .  S
O2794     Zr2803   2.378       .  S
O2794      H2819   0.964       .  S
C2795      C3823   1.499       .  S
C2796      C3773   1.484       .  S
C2797      C3733   1.521       .  S
O2798      H2834   0.990   1_455  S
O2799      C2801   1.286       .  A
O2800      C2801   1.290       .  A
C2801      C3413   1.479       .  S
O2802     Zr2803   2.435       .  S
O2802      H2831   0.990       .  S
Zr2803     O2806   2.436       .  S
Zr2803     O2807   2.437       .  S
Zr2803     O2808   2.450       .  S
O2804      C2809   1.291       .  A
O2805      H2822   0.990       .  S
O2805      H2837   0.990       .  S
O2806      H2823   0.990       .  S
O2807      H2827   0.991       .  S
O2807      H2836   0.989       .  S
O2808      C2809   1.285       .  A
C2809      C3523   1.513       .  S
O2810      H2829   0.990       .  S
O2810      H2833   0.990       .  S
O2811      H2825   0.991       .  S
O2811      H2832   0.989       .  S
O2812      C2816   1.292       .  A
O2813      C2816   1.282       .  A
O2814      H2824   0.990       .  S
O2815      H2828   0.990       .  S
C2816      C3373   1.488       .  S
Zr2839     O2840   2.442       .  S
Zr2839     O2841   2.461       .  S
Zr2839     O2842   2.454       .  S
Zr2839     O2845   2.447       .  S
Zr2839     O2847   2.377       .  S
Zr2839     O2848   2.387       .  S
Zr2839     O2849   2.411       .  S
Zr2839     O2850   2.405       .  S
O2840      H2896   0.991       .  S
O2840      H2904   0.990       .  S
O2841      C2861   1.287       .  A
O2842      C2863   1.287       .  A
O2843     Zr2853   2.457   1_554  S
O2843      C2862   1.288       .  A
O2844     Zr2852   2.430       .  S
O2844      C2863   1.281       .  A
O2845      C2862   1.288       .  A
O2846     Zr2854   2.397   1_554  S
O2846      C2861   1.277       .  A
O2847     Zr2852   2.398       .  S
O2847     Zr2854   2.377   1_554  S
O2848     Zr2853   2.405   1_554  S
O2848     Zr2854   2.387   1_554  S
O2848      H2883   0.964   1_554  S
O2849     Zr2852   2.398       .  S
O2849     Zr2869   2.397       .  S
O2849      H2886   0.966       .  S
O2850     Zr2853   2.395   1_554  S
O2850     Zr2869   2.396       .  S
Zr2851     O2876   2.424       .  S
Zr2851     O2870   2.482       .  S
Zr2851     O2878   2.474       .  S
Zr2851     O2866   2.502       .  S
Zr2851     O2857   2.401       .  S
Zr2851     O2858   2.417       .  S
Zr2851     O2859   2.386   1_556  S
Zr2851     O2860   2.392       .  S
Zr2852     O2871   2.436       .  S
Zr2852     O2864   2.436       .  S
Zr2852     O2865   2.418       .  S
Zr2852     O2858   2.400   1_554  S
Zr2852     O2859   2.406       .  S
Zr2853     O2855   2.437       .  S
Zr2853     O2877   2.439       .  S
Zr2853     O2879   2.456       .  S
Zr2853     O2857   2.393       .  S
Zr2853     O2860   2.399       .  S
Zr2854     O2880   2.437       .  S
Zr2854     O2881   2.437       .  S
Zr2854     O2856   2.440   1_556  S
Zr2854     O2857   2.382       .  S
Zr2854     O2858   2.382       .  S
O2855      H2892   0.990       .  S
O2856      H2887   0.990   1_554  S
O2856      H2901   0.990       .  S
O2858      H2884   0.963       .  S
O2859     Zr2869   2.387       .  S
O2860     Zr2869   2.386   1_556  S
O2860      H2885   0.965       .  S
C2861      C3640   1.476       .  S
C2862      C3593   1.500       .  S
C2863      C3703   1.478       .  S
O2864      H2900   0.991       .  S
O2865      C2867   1.281       .  A
O2866      C2867   1.297   1_556  A
C2867      C4273   1.498   1_554  S
O2868     Zr2869   2.441       .  S
O2868      H2897   0.991       .  S
Zr2869     O2872   2.436       .  S
Zr2869     O2873   2.440       .  S
Zr2869     O2874   2.410       .  S
O2870      C2875   1.291       .  A
O2871      H2888   0.990       .  S
O2871      H2903   0.990       .  S
O2872      H2889   0.991       .  S
O2873      H2893   0.990       .  S
O2873      H2902   0.990       .  S
O2874      C2875   1.278   1_554  A
C2875      C4423   1.489       .  S
O2876      H2895   0.989       .  S
O2876      H2899   0.989       .  S
O2877      H2891   0.991       .  S
O2877      H2898   0.990       .  S
O2878      C2882   1.294       .  A
O2879      C2882   1.289       .  A
O2880      H2890   0.990       .  S
O2881      H2894   0.990       .  S
C2882      C4363   1.501       .  S
Zr2905     O2906   2.445       .  S
Zr2905     O2907   2.495       .  S
Zr2905     O2908   2.471       .  S
Zr2905     O2911   2.437       .  S
Zr2905     O2913   2.384       .  S
Zr2905     O2914   2.382   1_565  S
Zr2905     O2915   2.418       .  S
Zr2905     O2916   2.419       .  S
O2906      H2962   0.990       .  S
O2906      H2970   0.991       .  S
O2907      C2927   1.295       .  A
O2908      C2929   1.290       .  A
O2909     Zr2919   2.465       .  S
O2909      C2928   1.290   1_545  A
O2910     Zr2918   2.429       .  S
O2910      C2929   1.282       .  A
O2911      C2928   1.285       .  A
O2912     Zr2920   2.376       .  S
O2912      C2927   1.272   1_545  A
O2913     Zr2918   2.408       .  S
O2913     Zr2920   2.390   1_565  S
O2914     Zr2919   2.389       .  S
O2914     Zr2920   2.379       .  S
O2914      H2949   0.965       .  S
O2915     Zr2918   2.405       .  S
O2915     Zr2935   2.380       .  S
O2915      H2952   0.961       .  S
O2916     Zr2919   2.387   1_565  S
O2916     Zr2935   2.398       .  S
Zr2917     O2942   2.438       .  S
Zr2917     O2936   2.464       .  S
Zr2917     O2944   2.456       .  S
Zr2917     O2932   2.466       .  S
Zr2917     O2923   2.400       .  S
Zr2917     O2924   2.412       .  S
Zr2917     O2925   2.378   1_545  S
Zr2917     O2926   2.393       .  S
Zr2918     O2937   2.438       .  S
Zr2918     O2930   2.434       .  S
Zr2918     O2931   2.445       .  S
Zr2918     O2924   2.399   1_565  S
Zr2918     O2925   2.403       .  S
Zr2919     O2921   2.436       .  S
Zr2919     O2943   2.439       .  S
Zr2919     O2945   2.434       .  S
Zr2919     O2923   2.400       .  S
Zr2919     O2926   2.405       .  S
Zr2920     O2946   2.434       .  S
Zr2920     O2947   2.435       .  S
Zr2920     O2922   2.437       .  S
Zr2920     O2923   2.379       .  S
Zr2920     O2924   2.369       .  S
O2921      H2958   0.990       .  S
O2922      H2953   0.990       .  S
O2922      H2967   0.990   1_545  S
O2924      H2950   0.964       .  S
O2925     Zr2935   2.386       .  S
O2926     Zr2935   2.369   1_545  S
O2926      H2951   0.966       .  S
C2927      C3950   1.483       .  S
C2928      C3913   1.502       .  S
C2929      C4003   1.483       .  S
O2930      H2966   0.990       .  S
O2931      C2933   1.286   1_565  A
O2932      C2933   1.293       .  A
C2933      C4093   1.495       .  S
O2934     Zr2935   2.437       .  S
O2934      H2963   0.990       .  S
Zr2935     O2938   2.435       .  S
Zr2935     O2939   2.439   1_565  S
Zr2935     O2940   2.409   1_565  S
O2936      C2941   1.288       .  A
O2937      H2954   0.990       .  S
O2937      H2969   0.990       .  S
O2938      H2955   0.989       .  S
O2939      H2959   0.990       .  S
O2939      H2968   0.990       .  S
O2940      C2941   1.279       .  A
C2941      C4133   1.486       .  S
O2942      H2961   0.990       .  S
O2942      H2965   0.989       .  S
O2943      H2957   0.990       .  S
O2943      H2964   0.991       .  S
O2944      C2948   1.289       .  A
O2945      C2948   1.284       .  A
O2946      H2956   0.990       .  S
O2947      H2960   0.990       .  S
C2948      C4240   1.479       .  S
Zr2971     O2972   2.445       .  S
Zr2971     O2973   2.462       .  S
Zr2971     O2974   2.428       .  S
Zr2971     O2977   2.446       .  S
Zr2971     O2979   2.380       .  S
Zr2971     O2980   2.379       .  S
Zr2971     O2981   2.422       .  S
Zr2971     O2982   2.394       .  S
O2972      H3028   0.989       .  S
O2972      H3036   0.989       .  S
O2973      C2993   1.288       .  A
O2974      C2995   1.283       .  A
O2975     Zr2985   2.450       .  S
O2975      C2994   1.288       .  A
O2976     Zr2984   2.467       .  S
O2976      C2995   1.290       .  A
O2977      C2994   1.286       .  A
O2978     Zr2986   2.404       .  S
O2978      C2993   1.276       .  A
O2979     Zr2984   2.407       .  S
O2979     Zr2986   2.386       .  S
O2980     Zr2985   2.399       .  S
O2980     Zr2986   2.379       .  S
O2980      H3015   0.965       .  S
O2981     Zr2984   2.411       .  S
O2981     Zr3001   2.384       .  S
O2981      H3018   0.963       .  S
O2982     Zr2985   2.383       .  S
O2982     Zr3001   2.382       .  S
Zr2983     O3008   2.419       .  S
Zr2983     O3002   2.474       .  S
Zr2983     O3010   2.489       .  S
Zr2983     O2998   2.469       .  S
Zr2983     O2989   2.404       .  S
Zr2983     O2990   2.413       .  S
Zr2983     O2991   2.384       .  S
Zr2983     O2992   2.380       .  S
Zr2984     O3003   2.437       .  S
Zr2984     O2996   2.435       .  S
Zr2984     O2997   2.464       .  S
Zr2984     O2990   2.403       .  S
Zr2984     O2991   2.410       .  S
Zr2985     O2987   2.436       .  S
Zr2985     O3009   2.435       .  S
Zr2985     O3011   2.442       .  S
Zr2985     O2989   2.396       .  S
Zr2985     O2992   2.405       .  S
Zr2986     O3012   2.434       .  S
Zr2986     O3013   2.435       .  S
Zr2986     O2988   2.438       .  S
Zr2986     O2989   2.394       .  S
Zr2986     O2990   2.373       .  S
O2987      H3024   0.989       .  S
O2988      H3019   0.990       .  S
O2988      H3033   0.990       .  S
O2990      H3016   0.966       .  S
O2991     Zr3001   2.388       .  S
O2992     Zr3001   2.380       .  S
O2992      H3017   0.966       .  S
C2993      C4123   1.496       .  S
C2994      C4173   1.497       .  S
C2995      C4223   1.485       .  S
O2996      H3032   0.990       .  S
O2997      C2999   1.290       .  A
O2998      C2999   1.292       .  A
C2999      C3443   1.495       .  S
O3000     Zr3001   2.431       .  S
O3000      H3029   0.989       .  S
Zr3001     O3004   2.435       .  S
Zr3001     O3005   2.439       .  S
Zr3001     O3006   2.395       .  S
O3002      C3007   1.292       .  A
O3003      H3020   0.989       .  S
O3003      H3035   0.990       .  S
O3004      H3021   0.990       .  S
O3005      H3025   0.990       .  S
O3005      H3034   0.990       .  S
O3006      C3007   1.274       .  A
C3007      C3503   1.493       .  S
O3008      H3027   0.989       .  S
O3008      H3031   0.990       .  S
O3009      H3023   0.990       .  S
O3009      H3030   0.989       .  S
O3010      C3014   1.294       .  A
O3011      C3014   1.286       .  A
O3012      H3022   0.989       .  S
O3013      H3026   0.990       .  S
C3014      C3390   1.511       .  S
Zr3037     O3038   2.440       .  S
Zr3037     O3039   2.487       .  S
Zr3037     O3040   2.481       .  S
Zr3037     O3043   2.488       .  S
Zr3037     O3045   2.389       .  S
Zr3037     O3046   2.381       .  S
Zr3037     O3047   2.422   1_565  S
Zr3037     O3048   2.406   1_565  S
O3038      H3094   0.990       .  S
O3038      H3102   0.989       .  S
O3039      C3059   1.293       .  A
O3040      C3061   1.293       .  A
O3041     Zr3051   2.441   1_565  S
O3041      C3060   1.285       .  A
O3042     Zr3050   2.431       .  S
O3042      C3061   1.283       .  A
O3043      C3060   1.296       .  A
O3044     Zr3052   2.397       .  S
O3044      C3059   1.275       .  A
O3045     Zr3050   2.411       .  S
O3045     Zr3052   2.386       .  S
O3046     Zr3051   2.399   1_565  S
O3046     Zr3052   2.378       .  S
O3046      H3081   0.964       .  S
O3047     Zr3050   2.401   1_545  S
O3047     Zr3067   2.386       .  S
O3047      H3084   0.961       .  S
O3048     Zr3051   2.389       .  S
O3048     Zr3067   2.390       .  S
Zr3049     O3074   2.443       .  S
Zr3049     O3068   2.495       .  S
Zr3049     O3076   2.493       .  S
Zr3049     O3064   2.498       .  S
Zr3049     O3055   2.409   1_545  S
Zr3049     O3056   2.416   1_545  S
Zr3049     O3057   2.387       .  S
Zr3049     O3058   2.393       .  S
Zr3050     O3069   2.437   1_565  S
Zr3050     O3062   2.435       .  S
Zr3050     O3063   2.441   1_565  S
Zr3050     O3056   2.393       .  S
Zr3050     O3057   2.401   1_565  S
Zr3051     O3053   2.437       .  S
Zr3051     O3075   2.439   1_545  S
Zr3051     O3077   2.419       .  S
Zr3051     O3055   2.399   1_545  S
Zr3051     O3058   2.408       .  S
Zr3052     O3078   2.437       .  S
Zr3052     O3079   2.434       .  S
Zr3052     O3054   2.438       .  S
Zr3052     O3055   2.387       .  S
Zr3052     O3056   2.378       .  S
O3053      H3090   0.990       .  S
O3054      H3085   0.990       .  S
O3054      H3099   0.990       .  S
O3056      H3082   0.963       .  S
O3057     Zr3067   2.390       .  S
O3058     Zr3067   2.382       .  S
O3058      H3083   0.967       .  S
C3059      C4583   1.490       .  S
C3060      C4473   1.497       .  S
C3061      C4523   1.487       .  S
O3062      H3098   0.990       .  S
O3063      C3065   1.285       .  A
O3064      C3065   1.297       .  A
C3065      C4070   1.498       .  S
O3066     Zr3067   2.438       .  S
O3066      H3095   0.991       .  S
Zr3067     O3070   2.440       .  S
Zr3067     O3071   2.441       .  S
Zr3067     O3072   2.400       .  S
O3068      C3073   1.295       .  A
O3069      H3086   0.990       .  S
O3069      H3101   0.990       .  S
O3070      H3087   0.990       .  S
O3071      H3091   0.990       .  S
O3071      H3100   0.990       .  S
O3072      C3073   1.276       .  A
C3073      C4160   1.491       .  S
O3074      H3093   0.989       .  S
O3074      H3097   0.989       .  S
O3075      H3089   0.990       .  S
O3075      H3096   0.990       .  S
O3076      C3080   1.296       .  A
O3077      C3080   1.281       .  A
O3078      H3088   0.990       .  S
O3079      H3092   0.990       .  S
C3080      C4113   1.484       .  S
Zr3103     O3104   2.442       .  S
Zr3103     O3105   2.471       .  S
Zr3103     O3106   2.449       .  S
Zr3103     O3109   2.435       .  S
Zr3103     O3111   2.381   1_455  S
Zr3103     O3112   2.390       .  S
Zr3103     O3113   2.416       .  S
Zr3103     O3114   2.390       .  S
O3104      H3160   0.991       .  S
O3104      H3168   0.991       .  S
O3105      C3125   1.288       .  A
O3106      C3127   1.284       .  A
O3107     Zr3117   2.476       .  S
O3107      C3126   1.292       .  A
O3108     Zr3116   2.475       .  S
O3108      C3127   1.292   1_655  A
O3109      C3126   1.287       .  A
O3110     Zr3118   2.435       .  S
O3110      C3125   1.283   1_655  A
O3111     Zr3116   2.409       .  S
O3111     Zr3118   2.395       .  S
O3112     Zr3117   2.404       .  S
O3112     Zr3118   2.381   1_455  S
O3112      H3147   0.965       .  S
O3113     Zr3116   2.395   1_455  S
O3113     Zr3133   2.370       .  S
O3113      H3150   0.963       .  S
O3114     Zr3117   2.375       .  S
O3114     Zr3133   2.362       .  S
Zr3115     O3140   2.444       .  S
Zr3115     O3134   2.428       .  S
Zr3115     O3142   2.448       .  S
Zr3115     O3130   2.445       .  S
Zr3115     O3121   2.395       .  S
Zr3115     O3122   2.412       .  S
Zr3115     O3123   2.387       .  S
Zr3115     O3124   2.384   1_655  S
Zr3116     O3135   2.441       .  S
Zr3116     O3128   2.433       .  S
Zr3116     O3129   2.466       .  S
Zr3116     O3122   2.405       .  S
Zr3116     O3123   2.406       .  S
Zr3117     O3119   2.434       .  S
Zr3117     O3141   2.437       .  S
Zr3117     O3143   2.461       .  S
Zr3117     O3121   2.394   1_455  S
Zr3117     O3124   2.399       .  S
Zr3118     O3144   2.433       .  S
Zr3118     O3145   2.436       .  S
Zr3118     O3120   2.436       .  S
Zr3118     O3121   2.388       .  S
Zr3118     O3122   2.404       .  S
O3119      H3156   0.990       .  S
O3120      H3151   0.991       .  S
O3120      H3165   0.989       .  S
O3122      H3148   0.965       .  S
O3123     Zr3133   2.381   1_655  S
O3124     Zr3133   2.384       .  S
O3124      H3149   0.964       .  S
C3125      C3753   1.497       .  S
C3126      C3860   1.493       .  S
C3127      C3713   1.495       .  S
O3128      H3164   0.990       .  S
O3129      C3131   1.289       .  A
O3130      C3131   1.285       .  A
C3131      C4593   1.512       .  S
O3132     Zr3133   2.439       .  S
O3132      H3161   0.990       .  S
Zr3133     O3136   2.439       .  S
Zr3133     O3137   2.436       .  S
Zr3133     O3138   2.375       .  S
O3134      C3139   1.283   1_655  A
O3135      H3152   0.990       .  S
O3135      H3167   0.991       .  S
O3136      H3153   0.990       .  S
O3137      H3157   0.990       .  S
O3137      H3166   0.989       .  S
O3138      C3139   1.272       .  A
C3139      C4433   1.449       .  S
O3140      H3159   0.991       .  S
O3140      H3163   0.990       .  S
O3141      H3155   0.990       .  S
O3141      H3162   0.990       .  S
O3142      C3146   1.287   1_655  A
O3143      C3146   1.289       .  A
O3144      H3154   0.989       .  S
O3145      H3158   0.991       .  S
C3146      C4480   1.494       .  S
C3169      C3170   1.412       .  A
C3169      C3174   1.416       .  A
C3169     Br3176   1.928       .  S
C3170      C3171   1.411   1_554  A
C3171      C3172   1.409       .  A
C3171     Br3178   1.929       .  S
C3172      C3173   1.409   1_556  A
C3172     Br3177   1.927       .  S
C3173      C3174   1.412       .  A
C3174     Br3175   1.921       .  S
C3179      C3180   1.423       .  A
C3179      C3184   1.407       .  A
C3179     Br3186   1.931       .  S
C3180      C3181   1.425       .  A
C3181      C3182   1.422   1_545  A
C3181     Br3188   1.931   1_545  S
C3182      C3183   1.411   1_565  A
C3182     Br3187   1.930       .  S
C3183      C3184   1.404       .  A
C3184     Br3185   1.933       .  S
C3189      C3190   1.423       .  A
C3189      C3194   1.411       .  A
C3189     Br3196   1.931   1_554  S
C3190      C3191   1.416       .  A
C3191      C3192   1.417       .  A
C3191     Br3198   1.930       .  S
C3192      C3193   1.410       .  A
C3192     Br3197   1.929       .  S
C3193      C3194   1.407       .  A
C3194     Br3195   1.933   1_554  S
C3199      C3200   1.423       .  A
C3199      C3204   1.402       .  A
C3199     Br3206   1.929       .  S
C3200      C3201   1.413       .  A
C3201      C3202   1.402       .  A
C3201     Br3208   1.924       .  S
C3202      C3203   1.407       .  A
C3202     Br3207   1.929       .  S
C3203      C3204   1.401       .  A
C3204     Br3205   1.929       .  S
C3209      C3210   1.421       .  A
C3209      C3214   1.432       .  A
C3209     Br3216   1.923   1_554  S
C3210      C3211   1.408       .  A
C3211      C3212   1.400       .  A
C3211     Br3218   1.941       .  S
C3212      C3213   1.417       .  A
C3212     Br3217   1.918       .  S
C3213      C3214   1.415       .  A
C3214     Br3215   1.921       .  S
C3219      C3220   1.412       .  A
C3219      C3224   1.420       .  A
C3219     Br3226   1.924       .  S
C3220      C3221   1.416   1_554  A
C3221      C3222   1.411       .  A
C3221     Br3228   1.923       .  S
C3222      C3223   1.407   1_556  A
C3222     Br3227   1.931   1_655  S
C3223      C3224   1.412       .  A
C3224     Br3225   1.919       .  S
C3229      C3230   1.421       .  A
C3229      C3234   1.421       .  A
C3229     Br3236   1.930       .  S
C3230      C3231   1.411       .  A
C3231      C3232   1.409       .  A
C3231     Br3238   1.938       .  S
C3232      C3233   1.428       .  A
C3232     Br3237   1.938       .  S
C3233      C3234   1.413       .  A
C3234     Br3235   1.927       .  S
C3239      C3240   1.414       .  A
C3239      C3244   1.406       .  A
C3239     Br3246   1.926       .  S
C3240      C3241   1.411   1_455  A
C3241      C3242   1.399       .  A
C3241     Br3248   1.930       .  S
C3242      C3243   1.414   1_655  A
C3242     Br3247   1.933       .  S
C3243      C3244   1.414       .  A
C3244     Br3245   1.930       .  S
C3249      C3250   1.405   1_565  A
C3249      C3254   1.403       .  A
C3249     Br3256   1.922       .  S
C3250      C3251   1.406       .  A
C3251      C3252   1.404       .  A
C3251     Br3258   1.930       .  S
C3252      C3253   1.411   1_545  A
C3252     Br3257   1.924       .  S
C3253      C3254   1.409       .  A
C3254     Br3255   1.929       .  S
C3259      C3260   1.416       .  A
C3259      C3264   1.406       .  A
C3259     Br3266   1.930   1_545  S
C3260      C3261   1.409       .  A
C3261      C3262   1.413       .  A
C3261     Br3268   1.924       .  S
C3262      C3263   1.410       .  A
C3262     Br3267   1.925       .  S
C3263      C3264   1.406       .  A
C3264     Br3265   1.930   1_545  S
C3269      C3270   1.409   1_545  A
C3269      C3274   1.413       .  A
C3269     Br3276   1.929       .  S
C3270      C3271   1.410   1_655  A
C3271      C3272   1.407       .  A
C3271     Br3278   1.931       .  S
C3272      C3273   1.411   1_455  A
C3272     Br3277   1.931       .  S
C3273      C3274   1.414   1_565  A
C3274     Br3275   1.925       .  S
C3279      C3280   1.405       .  A
C3279      C3284   1.406       .  A
C3279     Br3286   1.931       .  S
C3280      C3281   1.412   1_655  A
C3281      C3282   1.412       .  A
C3281     Br3288   1.932       .  S
C3282      C3283   1.418   1_455  A
C3282     Br3287   1.934       .  S
C3283      C3284   1.417       .  A
C3284     Br3285   1.928       .  S
C3289      C3290   1.407       .  A
C3289      C3294   1.406       .  A
C3289     Br3296   1.929       .  S
C3290      C3291   1.410       .  A
C3291      C3292   1.406       .  A
C3291     Br3298   1.928       .  S
C3292      C3293   1.412       .  A
C3292     Br3297   1.926       .  S
C3293      C3294   1.413       .  A
C3294     Br3295   1.924       .  S
C3299      C3300   1.407       .  A
C3299      C3304   1.396       .  A
C3299     Br3306   1.929       .  S
C3300      C3301   1.419       .  A
C3301      C3302   1.401       .  A
C3301     Br3308   1.933       .  S
C3302      C3303   1.411       .  A
C3302     Br3307   1.935       .  S
C3303      C3304   1.411       .  A
C3304     Br3305   1.929       .  S
C3309      C3310   1.413       .  A
C3309      C3314   1.412       .  A
C3309     Br3316   1.927       .  S
C3310      C3311   1.410       .  A
C3311      C3312   1.394       .  A
C3311     Br3318   1.931       .  S
C3312      C3313   1.401       .  A
C3312     Br3317   1.913       .  S
C3313      C3314   1.412       .  A
C3314     Br3315   1.917       .  S
C3319      C3320   1.408       .  A
C3319      C3324   1.408       .  A
C3319     Br3326   1.930       .  S
C3320      C3321   1.413       .  A
C3321      C3322   1.417       .  A
C3321     Br3328   1.923       .  S
C3322      C3323   1.411       .  A
C3322     Br3327   1.928       .  S
C3323      C3324   1.411       .  A
C3324     Br3325   1.925       .  S
C3329      C3330   1.427       .  A
C3329      C3334   1.409       .  A
C3329     Br3336   1.941       .  S
C3330      C3331   1.432       .  A
C3331      C3332   1.418       .  A
C3331     Br3338   1.934       .  S
C3332      C3333   1.404       .  A
C3332     Br3337   1.932       .  S
C3333      C3334   1.411       .  A
C3334     Br3335   1.937       .  S
C3339      C3340   1.423       .  A
C3339      C3344   1.415       .  A
C3339     Br3346   1.930       .  S
C3340      C3341   1.414       .  A
C3341      C3342   1.412       .  A
C3341     Br3348   1.930       .  S
C3342      C3343   1.416       .  A
C3342     Br3347   1.930       .  S
C3343      C3344   1.407       .  A
C3344     Br3345   1.926       .  S
C3349      C3350   1.412       .  A
C3349      C3354   1.410       .  A
C3349     Br3356   1.925       .  S
C3350      C3351   1.415       .  A
C3351      C3352   1.401       .  A
C3351     Br3358   1.929       .  S
C3352      C3353   1.403       .  A
C3352     Br3357   1.931       .  S
C3353      C3354   1.408       .  A
C3354     Br3355   1.926       .  S
C3359      C3360   1.413       .  A
C3359      C3364   1.407       .  A
C3359     Br3366   1.929       .  S
C3360      C3361   1.405       .  A
C3361      C3362   1.409       .  A
C3361     Br3368   1.930       .  S
C3362      C3363   1.418       .  A
C3362     Br3367   1.926       .  S
C3363      C3364   1.411       .  A
C3364     Br3365   1.930   1_655  S
C3369      C3370   1.407       .  A
C3369      C3374   1.412       .  A
C3369     Br3376   1.927       .  S
C3370      C3371   1.407       .  A
C3371      C3372   1.410       .  A
C3371     Br3378   1.929       .  S
C3372      C3373   1.412       .  A
C3372     Br3377   1.927       .  S
C3373      C3374   1.415       .  A
C3374     Br3375   1.929       .  S
C3379      C3380   1.405       .  A
C3379      C3384   1.404       .  A
C3379     Br3386   1.928       .  S
C3380      C3381   1.406       .  A
C3381      C3382   1.392       .  A
C3381     Br3388   1.938       .  S
C3382      C3383   1.412       .  A
C3382     Br3387   1.938       .  S
C3383      C3384   1.409       .  A
C3384     Br3385   1.927       .  S
C3389      C3390   1.419       .  A
C3389      C3394   1.415       .  A
C3389     Br3396   1.929       .  S
C3390      C3391   1.420       .  A
C3391      C3392   1.420       .  A
C3391     Br3398   1.927       .  S
C3392      C3393   1.408       .  A
C3392     Br3397   1.923       .  S
C3393      C3394   1.412       .  A
C3394     Br3395   1.932       .  S
C3399      C3400   1.414       .  A
C3399      C3404   1.415       .  A
C3399     Br3406   1.930       .  S
C3400      C3401   1.416       .  A
C3401      C3402   1.424       .  A
C3401     Br3408   1.928       .  S
C3402      C3403   1.416       .  A
C3402     Br3407   1.923       .  S
C3403      C3404   1.416       .  A
C3404     Br3405   1.931       .  S
C3409      C3410   1.432       .  A
C3409      C3414   1.408       .  A
C3409     Br3416   1.933       .  S
C3410      C3411   1.410       .  A
C3411      C3412   1.416       .  A
C3411     Br3418   1.925       .  S
C3412      C3413   1.412       .  A
C3412     Br3417   1.926       .  S
C3413      C3414   1.399       .  A
C3414     Br3415   1.938       .  S
C3419      C3420   1.416       .  A
C3419      C3424   1.407       .  A
C3419     Br3426   1.929       .  S
C3420      C3421   1.405       .  A
C3421      C3422   1.405       .  A
C3421     Br3428   1.929       .  S
C3422      C3423   1.421       .  A
C3422     Br3427   1.929       .  S
C3423      C3424   1.409       .  A
C3424     Br3425   1.924       .  S
C3429      C3430   1.409       .  A
C3429      C3434   1.407       .  A
C3429     Br3436   1.928       .  S
C3430      C3431   1.414       .  A
C3431      C3432   1.416       .  A
C3431     Br3438   1.923       .  S
C3432      C3433   1.408       .  A
C3432     Br3437   1.921       .  S
C3433      C3434   1.411       .  A
C3434     Br3435   1.930       .  S
C3439      C3440   1.410       .  A
C3439      C3444   1.416       .  A
C3439     Br3446   1.926       .  S
C3440      C3441   1.406       .  A
C3441      C3442   1.412       .  A
C3441     Br3448   1.928       .  S
C3442      C3443   1.416       .  A
C3442     Br3447   1.928       .  S
C3443      C3444   1.412       .  A
C3444     Br3445   1.926       .  S
C3449      C3450   1.401       .  A
C3449      C3454   1.415       .  A
C3449     Br3456   1.933       .  S
C3450      C3451   1.410       .  A
C3451      C3452   1.409       .  A
C3451     Br3458   1.924       .  S
C3452      C3453   1.420       .  A
C3452     Br3457   1.936       .  S
C3453      C3454   1.432       .  A
C3454     Br3455   1.934       .  S
C3459      C3460   1.416       .  A
C3459      C3464   1.408       .  A
C3459     Br3466   1.932       .  S
C3460      C3461   1.416       .  A
C3461      C3462   1.411       .  A
C3461     Br3468   1.931       .  S
C3462      C3463   1.414       .  A
C3462     Br3467   1.933       .  S
C3463      C3464   1.410       .  A
C3464     Br3465   1.931       .  S
C3469      C3470   1.409       .  A
C3469      C3474   1.396       .  A
C3469     Br3476   1.927       .  S
C3470      C3471   1.414       .  A
C3471      C3472   1.408       .  A
C3471     Br3478   1.919       .  S
C3472      C3473   1.407       .  A
C3472     Br3477   1.928       .  S
C3473      C3474   1.407       .  A
C3474     Br3475   1.931       .  S
C3479      C3480   1.409       .  A
C3479      C3484   1.403       .  A
C3479     Br3486   1.919       .  S
C3480      C3481   1.406       .  A
C3481      C3482   1.404       .  A
C3481     Br3488   1.926       .  S
C3482      C3483   1.414       .  A
C3482     Br3487   1.922       .  S
C3483      C3484   1.404       .  A
C3484     Br3485   1.923       .  S
C3489      C3490   1.404       .  A
C3489      C3494   1.389       .  A
C3489     Br3496   1.934       .  S
C3490      C3491   1.406       .  A
C3491      C3492   1.410       .  A
C3491     Br3498   1.924       .  S
C3492      C3493   1.413       .  A
C3492     Br3497   1.923       .  S
C3493      C3494   1.408       .  A
C3494     Br3495   1.937       .  S
C3499      C3500   1.438       .  A
C3499      C3504   1.405       .  A
C3499     Br3506   1.929       .  S
C3500      C3501   1.421       .  A
C3501      C3502   1.422       .  A
C3501     Br3508   1.931       .  S
C3502      C3503   1.418       .  A
C3502     Br3507   1.930       .  S
C3503      C3504   1.400       .  A
C3504     Br3505   1.947       .  S
C3509      C3510   1.410       .  A
C3509      C3514   1.426       .  A
C3509     Br3516   1.926       .  S
C3510      C3511   1.420       .  A
C3511      C3512   1.408       .  A
C3511     Br3518   1.933       .  S
C3512      C3513   1.413       .  A
C3512     Br3517   1.938       .  S
C3513      C3514   1.426       .  A
C3514     Br3515   1.927       .  S
C3519      C3520   1.423       .  A
C3519      C3524   1.434       .  A
C3519     Br3526   1.929       .  S
C3520      C3521   1.429       .  A
C3521      C3522   1.415       .  A
C3521     Br3528   1.934       .  S
C3522      C3523   1.407       .  A
C3522     Br3527   1.934       .  S
C3523      C3524   1.418       .  A
C3524     Br3525   1.927       .  S
C3529      C3530   1.418       .  A
C3529      C3534   1.418       .  A
C3529     Br3536   1.929       .  S
C3530      C3531   1.412       .  A
C3531      C3532   1.417       .  A
C3531     Br3538   1.925       .  S
C3532      C3533   1.409       .  A
C3532     Br3537   1.922       .  S
C3533      C3534   1.406       .  A
C3534     Br3535   1.925       .  S
C3539      C3540   1.412       .  A
C3539      C3544   1.411       .  A
C3539     Br3546   1.932       .  S
C3540      C3541   1.408       .  A
C3541      C3542   1.412       .  A
C3541     Br3548   1.935       .  S
C3542      C3543   1.425       .  A
C3542     Br3547   1.934       .  S
C3543      C3544   1.415       .  A
C3544     Br3545   1.930       .  S
C3549      C3550   1.422       .  A
C3549      C3554   1.406       .  A
C3549     Br3556   1.936       .  S
C3550      C3551   1.419       .  A
C3551      C3552   1.424       .  A
C3551     Br3558   1.925       .  S
C3552      C3553   1.414       .  A
C3552     Br3557   1.927       .  S
C3553      C3554   1.405       .  A
C3554     Br3555   1.932       .  S
C3559      C3560   1.400       .  A
C3559      C3564   1.413       .  A
C3559     Br3566   1.919       .  S
C3560      C3561   1.403       .  A
C3561      C3562   1.396       .  A
C3561     Br3568   1.917       .  S
C3562      C3563   1.414       .  A
C3562     Br3567   1.916       .  S
C3563      C3564   1.429       .  A
C3564     Br3565   1.928       .  S
C3569      C3570   1.420   1_556  A
C3569      C3574   1.436       .  A
C3569     Br3576   1.922       .  S
C3570      C3571   1.421       .  A
C3571      C3572   1.390       .  A
C3571     Br3578   1.905       .  S
C3572      C3573   1.391       .  A
C3572     Br3577   1.935       .  S
C3573      C3574   1.421   1_554  A
C3574     Br3575   1.922       .  S
C3579      C3580   1.422       .  A
C3579      C3584   1.422       .  A
C3579     Br3586   1.929       .  S
C3580      C3581   1.415       .  A
C3581      C3582   1.417       .  A
C3581     Br3588   1.930       .  S
C3582      C3583   1.419       .  A
C3582     Br3587   1.932       .  S
C3583      C3584   1.413       .  A
C3584     Br3585   1.929       .  S
C3589      C3590   1.408       .  A
C3589      C3594   1.422       .  A
C3589     Br3596   1.925       .  S
C3590      C3591   1.410       .  A
C3591      C3592   1.405       .  A
C3591     Br3598   1.920       .  S
C3592      C3593   1.413       .  A
C3592     Br3597   1.937       .  S
C3593      C3594   1.421       .  A
C3594     Br3595   1.926       .  S
C3599      C3600   1.412       .  A
C3599      C3604   1.403       .  A
C3599     Br3606   1.928       .  S
C3600      C3601   1.415       .  A
C3601      C3602   1.402       .  A
C3601     Br3608   1.928       .  S
C3602      C3603   1.403       .  A
C3602     Br3607   1.919       .  S
C3603      C3604   1.413       .  A
C3604     Br3605   1.930       .  S
C3609      C3610   1.431       .  A
C3609      C3614   1.401       .  A
C3609     Br3616   1.943       .  S
C3610      C3611   1.423       .  A
C3611      C3612   1.403       .  A
C3611     Br3618   1.930       .  S
C3612      C3613   1.398       .  A
C3612     Br3617   1.926       .  S
C3613      C3614   1.405       .  A
C3614     Br3615   1.936       .  S
C3619      C3620   1.406   1_556  A
C3619      C3624   1.409       .  A
C3619     Br3626   1.927       .  S
C3620      C3621   1.411       .  A
C3621      C3622   1.413       .  A
C3621     Br3628   1.926       .  S
C3622      C3623   1.410       .  A
C3622     Br3627   1.928       .  S
C3623      C3624   1.413   1_554  A
C3624     Br3625   1.927       .  S
C3629      C3630   1.410       .  A
C3629      C3634   1.404       .  A
C3629     Br3636   1.931       .  S
C3630      C3631   1.413       .  A
C3631      C3632   1.417       .  A
C3631     Br3638   1.930       .  S
C3632      C3633   1.416       .  A
C3632     Br3637   1.930       .  S
C3633      C3634   1.417       .  A
C3634     Br3635   1.934       .  S
C3639      C3640   1.409       .  A
C3639      C3644   1.417       .  A
C3639     Br3646   1.927       .  S
C3640      C3641   1.404       .  A
C3641      C3642   1.402       .  A
C3641     Br3648   1.935   1_554  S
C3642      C3643   1.421       .  A
C3642     Br3647   1.936   1_554  S
C3643      C3644   1.419       .  A
C3644     Br3645   1.931       .  S
C3649      C3650   1.414       .  A
C3649      C3654   1.405       .  A
C3649     Br3656   1.929       .  S
C3650      C3651   1.418       .  A
C3651      C3652   1.402       .  A
C3651     Br3658   1.934       .  S
C3652      C3653   1.407       .  A
C3652     Br3657   1.933       .  S
C3653      C3654   1.404       .  A
C3654     Br3655   1.926       .  S
C3659      C3660   1.409       .  A
C3659      C3664   1.407       .  A
C3659     Br3666   1.931       .  S
C3660      C3661   1.410       .  A
C3661      C3662   1.408       .  A
C3661     Br3668   1.928       .  S
C3662      C3663   1.410       .  A
C3662     Br3667   1.929       .  S
C3663      C3664   1.410       .  A
C3664     Br3665   1.931       .  S
C3669      C3670   1.413       .  A
C3669      C3674   1.401       .  A
C3669     Br3676   1.936       .  S
C3670      C3671   1.408       .  A
C3671      C3672   1.408       .  A
C3671     Br3678   1.930       .  S
C3672      C3673   1.419       .  A
C3672     Br3677   1.929       .  S
C3673      C3674   1.412       .  A
C3674     Br3675   1.929       .  S
C3679      C3680   1.412       .  A
C3679      C3684   1.409       .  A
C3679     Br3686   1.931       .  S
C3680      C3681   1.417       .  A
C3681      C3682   1.409       .  A
C3681     Br3688   1.930       .  S
C3682      C3683   1.407       .  A
C3682     Br3687   1.928       .  S
C3683      C3684   1.415       .  A
C3684     Br3685   1.932       .  S
C3689      C3690   1.407       .  A
C3689      C3694   1.410       .  A
C3689     Br3696   1.928       .  S
C3690      C3691   1.411       .  A
C3691      C3692   1.414       .  A
C3691     Br3698   1.929       .  S
C3692      C3693   1.413       .  A
C3692     Br3697   1.929       .  S
C3693      C3694   1.412       .  A
C3694     Br3695   1.927       .  S
C3699      C3700   1.414       .  A
C3699      C3704   1.415       .  A
C3699     Br3706   1.925       .  S
C3700      C3701   1.413       .  A
C3701      C3702   1.403       .  A
C3701     Br3708   1.930       .  S
C3702      C3703   1.405       .  A
C3702     Br3707   1.928       .  S
C3703      C3704   1.409       .  A
C3704     Br3705   1.923       .  S
C3709      C3710   1.404       .  A
C3709      C3714   1.413       .  A
C3709     Br3716   1.924       .  S
C3710      C3711   1.418   1_455  A
C3711      C3712   1.414       .  A
C3711     Br3718   1.927       .  S
C3712      C3713   1.409   1_655  A
C3712     Br3717   1.927       .  S
C3713      C3714   1.421       .  A
C3714     Br3715   1.929       .  S
C3719      C3720   1.424       .  A
C3719      C3724   1.422       .  A
C3719     Br3726   1.931       .  S
C3720      C3721   1.418       .  A
C3721      C3722   1.415       .  A
C3721     Br3728   1.929       .  S
C3722      C3723   1.414       .  A
C3722     Br3727   1.928       .  S
C3723      C3724   1.412       .  A
C3724     Br3725   1.926       .  S
C3729      C3730   1.415       .  A
C3729      C3734   1.428       .  A
C3729     Br3736   1.927       .  S
C3730      C3731   1.410   1_455  A
C3731      C3732   1.423       .  A
C3731     Br3738   1.929       .  S
C3732      C3733   1.418       .  A
C3732     Br3737   1.925       .  S
C3733      C3734   1.418   1_655  A
C3734     Br3735   1.926       .  S
C3739      C3740   1.408       .  A
C3739      C3744   1.403       .  A
C3739     Br3746   1.929       .  S
C3740      C3741   1.398       .  A
C3741      C3742   1.405       .  A
C3741     Br3748   1.927       .  S
C3742      C3743   1.429       .  A
C3742     Br3747   1.932       .  S
C3743      C3744   1.420       .  A
C3744     Br3745   1.930   1_655  S
C3749      C3750   1.418       .  A
C3749      C3754   1.424       .  A
C3749     Br3756   1.920       .  S
C3750      C3751   1.419   1_455  A
C3751      C3752   1.410       .  A
C3751     Br3758   1.930       .  S
C3752      C3753   1.407   1_655  A
C3752     Br3757   1.930       .  S
C3753      C3754   1.415       .  A
C3754     Br3755   1.930       .  S
C3759      C3760   1.406       .  A
C3759      C3764   1.409       .  A
C3759     Br3766   1.934       .  S
C3760      C3761   1.410       .  A
C3761      C3762   1.405       .  A
C3761     Br3768   1.930       .  S
C3762      C3763   1.416       .  A
C3762     Br3767   1.935       .  S
C3763      C3764   1.421       .  A
C3764     Br3765   1.932       .  S
C3769      C3770   1.412   1_455  A
C3769      C3774   1.414       .  A
C3769     Br3776   1.926       .  S
C3770      C3771   1.409       .  A
C3771      C3772   1.409       .  A
C3771     Br3778   1.929       .  S
C3772      C3773   1.410       .  A
C3772     Br3777   1.924       .  S
C3773      C3774   1.409   1_655  A
C3774     Br3775   1.929       .  S
C3779      C3780   1.410       .  A
C3779      C3784   1.403       .  A
C3779     Br3786   1.927       .  S
C3780      C3781   1.410       .  A
C3781      C3782   1.400       .  A
C3781     Br3788   1.928       .  S
C3782      C3783   1.420       .  A
C3782     Br3787   1.940       .  S
C3783      C3784   1.412       .  A
C3784     Br3785   1.930       .  S
C3789      C3790   1.403       .  A
C3789      C3794   1.398       .  A
C3789     Br3796   1.920       .  S
C3790      C3791   1.398       .  A
C3791      C3792   1.403       .  A
C3791     Br3798   1.927       .  S
C3792      C3793   1.428       .  A
C3792     Br3797   1.930       .  S
C3793      C3794   1.421       .  A
C3794     Br3795   1.934       .  S
C3799      C3800   1.410       .  A
C3799      C3804   1.416       .  A
C3799     Br3806   1.935       .  S
C3800      C3801   1.414       .  A
C3801      C3802   1.424       .  A
C3801     Br3808   1.928       .  S
C3802      C3803   1.423       .  A
C3802     Br3807   1.930       .  S
C3803      C3804   1.425       .  A
C3804     Br3805   1.931       .  S
C3809      C3810   1.415       .  A
C3809      C3814   1.422       .  A
C3809     Br3816   1.925       .  S
C3810      C3811   1.419       .  A
C3811      C3812   1.403       .  A
C3811     Br3818   1.933       .  S
C3812      C3813   1.407       .  A
C3812     Br3817   1.939       .  S
C3813      C3814   1.412       .  A
C3814     Br3815   1.925       .  S
C3819      C3820   1.410       .  A
C3819      C3824   1.419       .  A
C3819     Br3826   1.923       .  S
C3820      C3821   1.409       .  A
C3821      C3822   1.415       .  A
C3821     Br3828   1.926       .  S
C3822      C3823   1.416       .  A
C3822     Br3827   1.930       .  S
C3823      C3824   1.415       .  A
C3824     Br3825   1.928       .  S
C3829      C3830   1.416       .  A
C3829      C3834   1.393       .  A
C3829     Br3836   1.915       .  S
C3830      C3831   1.409       .  A
C3831      C3832   1.414       .  A
C3831     Br3838   1.926       .  S
C3832      C3833   1.418       .  A
C3832     Br3837   1.931       .  S
C3833      C3834   1.399       .  A
C3834     Br3835   1.938       .  S
C3839      C3840   1.406       .  A
C3839      C3844   1.402       .  A
C3839     Br3846   1.936       .  S
C3840      C3841   1.404       .  A
C3841      C3842   1.408       .  A
C3841     Br3848   1.932       .  S
C3842      C3843   1.424       .  A
C3842     Br3847   1.935       .  S
C3843      C3844   1.423       .  A
C3844     Br3845   1.933       .  S
C3849      C3850   1.410       .  A
C3849      C3854   1.410       .  A
C3849     Br3856   1.930       .  S
C3850      C3851   1.405       .  A
C3851      C3852   1.411       .  A
C3851     Br3858   1.923       .  S
C3852      C3853   1.410       .  A
C3852     Br3857   1.916       .  S
C3853      C3854   1.415       .  A
C3854     Br3855   1.931       .  S
C3859      C3860   1.419       .  A
C3859      C3864   1.416       .  A
C3859     Br3866   1.925       .  S
C3860      C3861   1.413       .  A
C3861      C3862   1.398       .  A
C3861     Br3868   1.929       .  S
C3862      C3863   1.404       .  A
C3862     Br3867   1.920       .  S
C3863      C3864   1.408       .  A
C3864     Br3865   1.927       .  S
C3869      C3870   1.414       .  A
C3869      C3874   1.408       .  A
C3869     Br3876   1.931       .  S
C3870      C3871   1.420       .  A
C3871      C3872   1.414       .  A
C3871     Br3878   1.930       .  S
C3872      C3873   1.407       .  A
C3872     Br3877   1.926       .  S
C3873      C3874   1.413       .  A
C3874     Br3875   1.933       .  S
C3879      C3880   1.414       .  A
C3879      C3884   1.407       .  A
C3879     Br3886   1.933       .  S
C3880      C3881   1.412       .  A
C3881      C3882   1.411       .  A
C3881     Br3888   1.930       .  S
C3882      C3883   1.413       .  A
C3882     Br3887   1.930       .  S
C3883      C3884   1.407       .  A
C3884     Br3885   1.930       .  S
C3889      C3890   1.410       .  A
C3889      C3894   1.421       .  A
C3889     Br3896   1.927       .  S
C3890      C3891   1.408       .  A
C3891      C3892   1.414       .  A
C3891     Br3898   1.929       .  S
C3892      C3893   1.418       .  A
C3892     Br3897   1.930       .  S
C3893      C3894   1.418       .  A
C3894     Br3895   1.925       .  S
C3899      C3900   1.415   1_545  A
C3899      C3904   1.412       .  A
C3899     Br3906   1.930       .  S
C3900      C3901   1.408       .  A
C3901      C3902   1.410       .  A
C3901     Br3908   1.928       .  S
C3902      C3903   1.419       .  A
C3902     Br3907   1.933       .  S
C3903      C3904   1.416   1_565  A
C3904     Br3905   1.933       .  S
C3909      C3910   1.414       .  A
C3909      C3914   1.410       .  A
C3909     Br3916   1.934       .  S
C3910      C3911   1.407       .  A
C3911      C3912   1.418   1_565  A
C3911     Br3918   1.925   1_565  S
C3912      C3913   1.418   1_545  A
C3912     Br3917   1.928       .  S
C3913      C3914   1.419       .  A
C3914     Br3915   1.933       .  S
C3919      C3920   1.412       .  A
C3919      C3924   1.407       .  A
C3919     Br3926   1.925       .  S
C3920      C3921   1.414       .  A
C3921      C3922   1.410       .  A
C3921     Br3928   1.911       .  S
C3922      C3923   1.402       .  A
C3922     Br3927   1.926   1_565  S
C3923      C3924   1.409       .  A
C3924     Br3925   1.928       .  S
C3929      C3930   1.405       .  A
C3929      C3934   1.408       .  A
C3929     Br3936   1.925       .  S
C3930      C3931   1.404       .  A
C3931      C3932   1.412       .  A
C3931     Br3938   1.924       .  S
C3932      C3933   1.416       .  A
C3932     Br3937   1.929       .  S
C3933      C3934   1.417       .  A
C3934     Br3935   1.934       .  S
C3939      C3940   1.421       .  A
C3939      C3944   1.415       .  A
C3939     Br3946   1.935   1_565  S
C3940      C3941   1.421       .  A
C3941      C3942   1.410       .  A
C3941     Br3948   1.928       .  S
C3942      C3943   1.404       .  A
C3942     Br3947   1.930       .  S
C3943      C3944   1.412       .  A
C3944     Br3945   1.929   1_565  S
C3949      C3950   1.413       .  A
C3949      C3954   1.408       .  A
C3949     Br3956   1.931       .  S
C3950      C3951   1.415   1_565  A
C3951      C3952   1.414       .  A
C3951     Br3958   1.925       .  S
C3952      C3953   1.406   1_545  A
C3952     Br3957   1.925       .  S
C3953      C3954   1.414       .  A
C3954     Br3955   1.932       .  S
C3959      C3960   1.411       .  A
C3959      C3964   1.400       .  A
C3959     Br3966   1.935       .  S
C3960      C3961   1.415       .  A
C3961      C3962   1.406       .  A
C3961     Br3968   1.932       .  S
C3962      C3963   1.413       .  A
C3962     Br3967   1.934       .  S
C3963      C3964   1.413       .  A
C3964     Br3965   1.935       .  S
C3969      C3970   1.412       .  A
C3969      C3974   1.404       .  A
C3969     Br3976   1.924       .  S
C3970      C3971   1.414       .  A
C3971      C3972   1.403       .  A
C3971     Br3978   1.929       .  S
C3972      C3973   1.406       .  A
C3972     Br3977   1.920       .  S
C3973      C3974   1.406       .  A
C3974     Br3975   1.924       .  S
C3979      C3980   1.423       .  A
C3979      C3984   1.409       .  A
C3979     Br3986   1.934       .  S
C3980      C3981   1.414       .  A
C3981      C3982   1.420       .  A
C3981     Br3988   1.926       .  S
C3982      C3983   1.417       .  A
C3982     Br3987   1.926       .  S
C3983      C3984   1.409       .  A
C3984     Br3985   1.936       .  S
C3989      C3990   1.411       .  A
C3989      C3994   1.402       .  A
C3989     Br3996   1.930       .  S
C3990      C3991   1.411       .  A
C3991      C3992   1.413       .  A
C3991     Br3998   1.922       .  S
C3992      C3993   1.411       .  A
C3992     Br3997   1.928       .  S
C3993      C3994   1.410       .  A
C3994     Br3995   1.931       .  S
C3999      C4000   1.407       .  A
C3999      C4004   1.413       .  A
C3999     Br4006   1.925       .  S
C4000      C4001   1.404       .  A
C4001      C4002   1.402       .  A
C4001     Br4008   1.934       .  S
C4002      C4003   1.416       .  A
C4002     Br4007   1.930       .  S
C4003      C4004   1.413       .  A
C4004     Br4005   1.928       .  S
C4009      C4010   1.409       .  A
C4009      C4014   1.400       .  A
C4009     Br4016   1.923       .  S
C4010      C4011   1.402       .  A
C4011      C4012   1.407       .  A
C4011     Br4018   1.920       .  S
C4012      C4013   1.409       .  A
C4012     Br4017   1.911       .  S
C4013      C4014   1.410       .  A
C4014     Br4015   1.928       .  S
C4019      C4020   1.409       .  A
C4019      C4024   1.392       .  A
C4019     Br4026   1.936       .  S
C4020      C4021   1.422       .  A
C4021      C4022   1.405       .  A
C4021     Br4028   1.936       .  S
C4022      C4023   1.409       .  A
C4022     Br4027   1.931       .  S
C4023      C4024   1.406       .  A
C4024     Br4025   1.928       .  S
C4029      C4030   1.415       .  A
C4029      C4034   1.408       .  A
C4029     Br4036   1.926       .  S
C4030      C4031   1.414       .  A
C4031      C4032   1.404       .  A
C4031     Br4038   1.930       .  S
C4032      C4033   1.408       .  A
C4032     Br4037   1.923       .  S
C4033      C4034   1.409       .  A
C4034     Br4035   1.927       .  S
C4039      C4040   1.418       .  A
C4039      C4044   1.410       .  A
C4039     Br4046   1.912       .  S
C4040      C4041   1.414       .  A
C4041      C4042   1.408       .  A
C4041     Br4048   1.934       .  S
C4042      C4043   1.414       .  A
C4042     Br4047   1.931       .  S
C4043      C4044   1.411       .  A
C4044     Br4045   1.939       .  S
C4049      C4050   1.422       .  A
C4049      C4054   1.416       .  A
C4049     Br4056   1.930       .  S
C4050      C4051   1.424       .  A
C4051      C4052   1.422       .  A
C4051     Br4058   1.929       .  S
C4052      C4053   1.411       .  A
C4052     Br4057   1.926       .  S
C4053      C4054   1.409       .  A
C4054     Br4055   1.931       .  S
C4059      C4060   1.408       .  A
C4059      C4064   1.407       .  A
C4059     Br4066   1.928       .  S
C4060      C4061   1.419       .  A
C4061      C4062   1.419       .  A
C4061     Br4068   1.929       .  S
C4062      C4063   1.410       .  A
C4062     Br4067   1.926       .  S
C4063      C4064   1.414       .  A
C4064     Br4065   1.930       .  S
C4069      C4070   1.414       .  A
C4069      C4074   1.420       .  A
C4069     Br4076   1.929       .  S
C4070      C4071   1.414       .  A
C4071      C4072   1.414       .  A
C4071     Br4078   1.929   1_545  S
C4072      C4073   1.410       .  A
C4072     Br4077   1.928   1_545  S
C4073      C4074   1.412       .  A
C4074     Br4075   1.928       .  S
C4079      C4080   1.418       .  A
C4079      C4084   1.412       .  A
C4079     Br4086   1.929       .  S
C4080      C4081   1.416       .  A
C4081      C4082   1.426       .  A
C4081     Br4088   1.923       .  S
C4082      C4083   1.416       .  A
C4082     Br4087   1.925       .  S
C4083      C4084   1.409       .  A
C4084     Br4085   1.930       .  S
C4089      C4090   1.412       .  A
C4089      C4094   1.424       .  A
C4089     Br4096   1.925       .  S
C4090      C4091   1.418       .  A
C4091      C4092   1.401       .  A
C4091     Br4098   1.926       .  S
C4092      C4093   1.403       .  A
C4092     Br4097   1.932       .  S
C4093      C4094   1.421       .  A
C4094     Br4095   1.927   1_545  S
C4099      C4100   1.428   1_565  A
C4099      C4104   1.404       .  A
C4099     Br4106   1.931       .  S
C4100      C4101   1.418       .  A
C4101      C4102   1.405   1_545  A
C4101     Br4108   1.931       .  S
C4102      C4103   1.412       .  A
C4102     Br4107   1.930       .  S
C4103      C4104   1.397       .  A
C4104     Br4105   1.926       .  S
C4109      C4110   1.407   1_565  A
C4109      C4114   1.410       .  A
C4109     Br4116   1.927       .  S
C4110      C4111   1.412       .  A
C4111      C4112   1.412       .  A
C4111     Br4118   1.922       .  S
C4112      C4113   1.407       .  A
C4112     Br4117   1.927       .  S
C4113      C4114   1.410   1_545  A
C4114     Br4115   1.921       .  S
C4119      C4120   1.410       .  A
C4119      C4124   1.411       .  A
C4119     Br4126   1.927       .  S
C4120      C4121   1.405       .  A
C4121      C4122   1.409       .  A
C4121     Br4128   1.934       .  S
C4122      C4123   1.422       .  A
C4122     Br4127   1.932       .  S
C4123      C4124   1.416       .  A
C4124     Br4125   1.933       .  S
C4129      C4130   1.422       .  A
C4129      C4134   1.413       .  A
C4129     Br4136   1.933   1_545  S
C4130      C4131   1.420       .  A
C4131      C4132   1.413       .  A
C4131     Br4138   1.924       .  S
C4132      C4133   1.406       .  A
C4132     Br4137   1.930       .  S
C4133      C4134   1.411       .  A
C4134     Br4135   1.935   1_545  S
C4139      C4140   1.423       .  A
C4139      C4144   1.408       .  A
C4139     Br4146   1.932       .  S
C4140      C4141   1.416       .  A
C4141      C4142   1.398       .  A
C4141     Br4148   1.927       .  S
C4142      C4143   1.405       .  A
C4142     Br4147   1.929       .  S
C4143      C4144   1.407       .  A
C4144     Br4145   1.931       .  S
C4149      C4150   1.410       .  A
C4149      C4154   1.398       .  A
C4149     Br4156   1.931       .  S
C4150      C4151   1.411       .  A
C4151      C4152   1.402       .  A
C4151     Br4158   1.928       .  S
C4152      C4153   1.411       .  A
C4152     Br4157   1.930       .  S
C4153      C4154   1.419       .  A
C4154     Br4155   1.936       .  S
C4159      C4160   1.410       .  A
C4159      C4164   1.415       .  A
C4159     Br4166   1.928       .  S
C4160      C4161   1.413       .  A
C4161      C4162   1.415       .  A
C4161     Br4168   1.929       .  S
C4162      C4163   1.409       .  A
C4162     Br4167   1.925       .  S
C4163      C4164   1.411       .  A
C4164     Br4165   1.925       .  S
C4169      C4170   1.410       .  A
C4169      C4174   1.416       .  A
C4169     Br4176   1.925       .  S
C4170      C4171   1.409       .  A
C4171      C4172   1.406       .  A
C4171     Br4178   1.926       .  S
C4172      C4173   1.414       .  A
C4172     Br4177   1.930       .  S
C4173      C4174   1.421       .  A
C4174     Br4175   1.929       .  S
C4179      C4180   1.414       .  A
C4179      C4184   1.420       .  A
C4179     Br4186   1.928       .  S
C4180      C4181   1.413       .  A
C4181      C4182   1.409       .  A
C4181     Br4188   1.926       .  S
C4182      C4183   1.411       .  A
C4182     Br4187   1.928       .  S
C4183      C4184   1.415       .  A
C4184     Br4185   1.925       .  S
C4189      C4190   1.404       .  A
C4189      C4194   1.399       .  A
C4189     Br4196   1.940       .  S
C4190      C4191   1.411       .  A
C4191      C4192   1.409       .  A
C4191     Br4198   1.923       .  S
C4192      C4193   1.409       .  A
C4192     Br4197   1.929       .  S
C4193      C4194   1.421       .  A
C4194     Br4195   1.930       .  S
C4199      C4200   1.409       .  A
C4199      C4204   1.403       .  A
C4199     Br4206   1.930       .  S
C4200      C4201   1.410       .  A
C4201      C4202   1.411       .  A
C4201     Br4208   1.924       .  S
C4202      C4203   1.408       .  A
C4202     Br4207   1.923       .  S
C4203      C4204   1.410       .  A
C4204     Br4205   1.929       .  S
C4209      C4210   1.414       .  A
C4209      C4214   1.400       .  A
C4209     Br4216   1.932       .  S
C4210      C4211   1.412       .  A
C4211      C4212   1.407       .  A
C4211     Br4218   1.930       .  S
C4212      C4213   1.414       .  A
C4212     Br4217   1.929       .  S
C4213      C4214   1.408       .  A
C4214     Br4215   1.926       .  S
C4219      C4220   1.411       .  A
C4219      C4224   1.407       .  A
C4219     Br4226   1.932       .  S
C4220      C4221   1.423       .  A
C4221      C4222   1.412       .  A
C4221     Br4228   1.935       .  S
C4222      C4223   1.406       .  A
C4222     Br4227   1.929       .  S
C4223      C4224   1.415       .  A
C4224     Br4225   1.932       .  S
C4229      C4230   1.405       .  A
C4229      C4234   1.407       .  A
C4229     Br4236   1.919       .  S
C4230      C4231   1.403       .  A
C4231      C4232   1.419       .  A
C4231     Br4238   1.926       .  S
C4232      C4233   1.430       .  A
C4232     Br4237   1.928       .  S
C4233      C4234   1.420       .  A
C4234     Br4235   1.937       .  S
C4239      C4240   1.406       .  A
C4239      C4244   1.403       .  A
C4239     Br4246   1.924       .  S
C4240      C4241   1.409       .  A
C4241      C4242   1.414       .  A
C4241     Br4248   1.928       .  S
C4242      C4243   1.417       .  A
C4242     Br4247   1.928       .  S
C4243      C4244   1.412       .  A
C4244     Br4245   1.934       .  S
C4249      C4250   1.433       .  A
C4249      C4254   1.415       .  A
C4249     Br4256   1.941       .  S
C4250      C4251   1.439       .  A
C4251      C4252   1.421       .  A
C4251     Br4258   1.933       .  S
C4252      C4253   1.400       .  A
C4252     Br4257   1.932       .  S
C4253      C4254   1.408       .  A
C4254     Br4255   1.933       .  S
C4259      C4260   1.406       .  A
C4259      C4264   1.418       .  A
C4259     Br4266   1.921       .  S
C4260      C4261   1.412       .  A
C4261      C4262   1.409       .  A
C4261     Br4268   1.929   1_556  S
C4262      C4263   1.415       .  A
C4262     Br4267   1.930   1_556  S
C4263      C4264   1.423       .  A
C4264     Br4265   1.930       .  S
C4269      C4270   1.411   1_554  A
C4269      C4274   1.416       .  A
C4269     Br4276   1.929       .  S
C4270      C4271   1.410       .  A
C4271      C4272   1.415       .  A
C4271     Br4278   1.927       .  S
C4272      C4273   1.415       .  A
C4272     Br4277   1.930       .  S
C4273      C4274   1.416   1_556  A
C4274     Br4275   1.931       .  S
C4279      C4280   1.399       .  A
C4279      C4284   1.407       .  A
C4279     Br4286   1.917       .  S
C4280      C4281   1.409       .  A
C4281      C4282   1.404       .  A
C4281     Br4288   1.925       .  S
C4282      C4283   1.412       .  A
C4282     Br4287   1.929       .  S
C4283      C4284   1.414       .  A
C4284     Br4285   1.926       .  S
C4289      C4290   1.418       .  A
C4289      C4294   1.415       .  A
C4289     Br4296   1.929       .  S
C4290      C4291   1.417       .  A
C4291      C4292   1.413       .  A
C4291     Br4298   1.918       .  S
C4292      C4293   1.408       .  A
C4292     Br4297   1.930       .  S
C4293      C4294   1.410       .  A
C4294     Br4295   1.930       .  S
C4299      C4300   1.406       .  A
C4299      C4304   1.409       .  A
C4299     Br4306   1.926       .  S
C4300      C4301   1.409       .  A
C4301      C4302   1.416       .  A
C4301     Br4308   1.926       .  S
C4302      C4303   1.416       .  A
C4302     Br4307   1.927       .  S
C4303      C4304   1.414       .  A
C4304     Br4305   1.928       .  S
C4309      C4310   1.414       .  A
C4309      C4314   1.421       .  A
C4309     Br4316   1.928       .  S
C4310      C4311   1.403       .  A
C4311      C4312   1.418       .  A
C4311     Br4318   1.929       .  S
C4312      C4313   1.431       .  A
C4312     Br4317   1.931       .  S
C4313      C4314   1.422       .  A
C4314     Br4315   1.930       .  S
C4319      C4320   1.409       .  A
C4319      C4324   1.404       .  A
C4319     Br4326   1.925       .  S
C4320      C4321   1.402       .  A
C4321      C4322   1.403       .  A
C4321     Br4328   1.929       .  S
C4322      C4323   1.422       .  A
C4322     Br4327   1.931       .  S
C4323      C4324   1.416       .  A
C4324     Br4325   1.931       .  S
C4329      C4330   1.405       .  A
C4329      C4334   1.408       .  A
C4329     Br4336   1.924       .  S
C4330      C4331   1.411       .  A
C4331      C4332   1.410       .  A
C4331     Br4338   1.931       .  S
C4332      C4333   1.412       .  A
C4332     Br4337   1.926       .  S
C4333      C4334   1.413       .  A
C4334     Br4335   1.922       .  S
C4339      C4340   1.423       .  A
C4339      C4344   1.426       .  A
C4339     Br4346   1.929       .  S
C4340      C4341   1.426       .  A
C4341      C4342   1.414       .  A
C4341     Br4348   1.934       .  S
C4342      C4343   1.408       .  A
C4342     Br4347   1.933       .  S
C4343      C4344   1.415       .  A
C4344     Br4345   1.928       .  S
C4349      C4350   1.413       .  A
C4349      C4354   1.416       .  A
C4349     Br4356   1.929       .  S
C4350      C4351   1.420       .  A
C4351      C4352   1.408       .  A
C4351     Br4358   1.930       .  S
C4352      C4353   1.408       .  A
C4352     Br4357   1.929       .  S
C4353      C4354   1.416       .  A
C4354     Br4355   1.929       .  S
C4359      C4360   1.407       .  A
C4359      C4364   1.412       .  A
C4359     Br4366   1.929       .  S
C4360      C4361   1.411       .  A
C4361      C4362   1.418       .  A
C4361     Br4368   1.927       .  S
C4362      C4363   1.416       .  A
C4362     Br4367   1.928       .  S
C4363      C4364   1.415       .  A
C4364     Br4365   1.925       .  S
C4369      C4370   1.413       .  A
C4369      C4374   1.398       .  A
C4369     Br4376   1.930       .  S
C4370      C4371   1.416       .  A
C4371      C4372   1.407       .  A
C4371     Br4378   1.927       .  S
C4372      C4373   1.405       .  A
C4372     Br4377   1.925       .  S
C4373      C4374   1.408       .  A
C4374     Br4375   1.930       .  S
C4379      C4380   1.399       .  A
C4379      C4384   1.403       .  A
C4379     Br4386   1.923       .  S
C4380      C4381   1.398       .  A
C4381      C4382   1.395       .  A
C4381     Br4388   1.915       .  S
C4382      C4383   1.413       .  A
C4382     Br4387   1.936       .  S
C4383      C4384   1.425       .  A
C4384     Br4385   1.936       .  S
C4389      C4390   1.410       .  A
C4389      C4394   1.401       .  A
C4389     Br4396   1.923       .  S
C4390      C4391   1.416       .  A
C4391      C4392   1.403       .  A
C4391     Br4398   1.929       .  S
C4392      C4393   1.405       .  A
C4392     Br4397   1.923       .  S
C4393      C4394   1.409       .  A
C4394     Br4395   1.923       .  S
C4399      C4400   1.433       .  A
C4399      C4404   1.426       .  A
C4399     Br4406   1.931       .  S
C4400      C4401   1.425       .  A
C4401      C4402   1.420       .  A
C4401     Br4408   1.933       .  S
C4402      C4403   1.413       .  A
C4402     Br4407   1.933       .  S
C4403      C4404   1.407       .  A
C4404     Br4405   1.930       .  S
C4409      C4410   1.408       .  A
C4409      C4414   1.416       .  A
C4409     Br4416   1.922       .  S
C4410      C4411   1.406       .  A
C4411      C4412   1.412   1_556  A
C4411     Br4418   1.926   1_556  S
C4412      C4413   1.417   1_554  A
C4412     Br4417   1.930       .  S
C4413      C4414   1.411       .  A
C4414     Br4415   1.928       .  S
C4419      C4420   1.424       .  A
C4419      C4424   1.408   1_556  A
C4419     Br4426   1.936   1_556  S
C4420      C4421   1.420       .  A
C4421      C4422   1.422       .  A
C4421     Br4428   1.927       .  S
C4422      C4423   1.411       .  A
C4422     Br4427   1.931       .  S
C4423      C4424   1.406   1_556  A
C4424     Br4425   1.933       .  S
C4429      C4430   1.414   1_455  A
C4429      C4434   1.399       .  A
C4429     Br4436   1.934       .  S
C4430      C4431   1.409       .  A
C4431      C4432   1.396       .  A
C4431     Br4438   1.931       .  S
C4432      C4433   1.404   1_655  A
C4432     Br4437   1.932       .  S
C4433      C4434   1.401       .  A
C4434     Br4435   1.924       .  S
C4439      C4440   1.408       .  A
C4439      C4444   1.412       .  A
C4439     Br4446   1.917       .  S
C4440      C4441   1.404       .  A
C4441      C4442   1.406       .  A
C4441     Br4448   1.927   1_556  S
C4442      C4443   1.413       .  A
C4442     Br4447   1.928   1_556  S
C4443      C4444   1.408       .  A
C4444     Br4445   1.927       .  S
C4449      C4450   1.409   1_655  A
C4449      C4454   1.397   1_655  A
C4449     Br4456   1.930   1_556  S
C4450      C4451   1.415       .  A
C4451      C4452   1.407       .  A
C4451     Br4458   1.930       .  S
C4452      C4453   1.405       .  A
C4452     Br4457   1.930       .  S
C4453      C4454   1.403       .  A
C4454     Br4455   1.930   1_456  S
C4459      C4460   1.409       .  A
C4459      C4464   1.410       .  A
C4459     Br4466   1.931       .  S
C4460      C4461   1.406       .  A
C4461      C4462   1.405       .  A
C4461     Br4468   1.910       .  S
C4462      C4463   1.408       .  A
C4462     Br4467   1.930       .  S
C4463      C4464   1.412       .  A
C4464     Br4465   1.929       .  S
C4469      C4470   1.410   1_545  A
C4469      C4474   1.412       .  A
C4469     Br4476   1.929       .  S
C4470      C4471   1.412       .  A
C4471      C4472   1.418       .  A
C4471     Br4478   1.928       .  S
C4472      C4473   1.414       .  A
C4472     Br4477   1.928       .  S
C4473      C4474   1.410   1_565  A
C4474     Br4475   1.925       .  S
C4479      C4480   1.406   1_655  A
C4479      C4484   1.413       .  A
C4479     Br4486   1.929       .  S
C4480      C4481   1.408       .  A
C4481      C4482   1.418       .  A
C4481     Br4488   1.921       .  S
C4482      C4483   1.420   1_455  A
C4482     Br4487   1.928       .  S
C4483      C4484   1.421       .  A
C4484     Br4485   1.931       .  S
C4489      C4490   1.411       .  A
C4489      C4494   1.414       .  A
C4489     Br4496   1.928   1_655  S
C4490      C4491   1.419       .  A
C4491      C4492   1.401       .  A
C4491     Br4498   1.932       .  S
C4492      C4493   1.408       .  A
C4492     Br4497   1.940       .  S
C4493      C4494   1.416       .  A
C4494     Br4495   1.927   1_655  S
C4499      C4500   1.407       .  A
C4499      C4504   1.405       .  A
C4499     Br4506   1.932       .  S
C4500      C4501   1.405       .  A
C4501      C4502   1.401       .  A
C4501     Br4508   1.926       .  S
C4502      C4503   1.409       .  A
C4502     Br4507   1.928       .  S
C4503      C4504   1.414       .  A
C4504     Br4505   1.928       .  S
C4509      C4510   1.432       .  A
C4509      C4514   1.400       .  A
C4509     Br4516   1.937       .  S
C4510      C4511   1.423       .  A
C4511      C4512   1.407   1_565  A
C4511     Br4518   1.930   1_565  S
C4512      C4513   1.403   1_545  A
C4512     Br4517   1.927       .  S
C4513      C4514   1.398       .  A
C4514     Br4515   1.927       .  S
C4519      C4520   1.411       .  A
C4519      C4524   1.416       .  A
C4519     Br4526   1.930       .  S
C4520      C4521   1.407       .  A
C4521      C4522   1.408       .  A
C4521     Br4528   1.931   1_565  S
C4522      C4523   1.414       .  A
C4522     Br4527   1.931   1_565  S
C4523      C4524   1.413       .  A
C4524     Br4525   1.928       .  S
C4529      C4530   1.419       .  A
C4529      C4534   1.408       .  A
C4529     Br4536   1.929       .  S
C4530      C4531   1.414       .  A
C4531      C4532   1.421       .  A
C4531     Br4538   1.930       .  S
C4532      C4533   1.416       .  A
C4532     Br4537   1.927   1_556  S
C4533      C4534   1.409       .  A
C4534     Br4535   1.932       .  S
C4539      C4540   1.418       .  A
C4539      C4544   1.412       .  A
C4539     Br4546   1.931   1_565  S
C4540      C4541   1.411       .  A
C4541      C4542   1.420       .  A
C4541     Br4548   1.928       .  S
C4542      C4543   1.419       .  A
C4542     Br4547   1.928   1_556  S
C4543      C4544   1.412       .  A
C4544     Br4545   1.930   1_565  S
C4549      C4550   1.424       .  A
C4549      C4554   1.399       .  A
C4549     Br4556   1.938       .  S
C4550      C4551   1.427       .  A
C4551      C4552   1.404       .  A
C4551     Br4558   1.932       .  S
C4552      C4553   1.400       .  A
C4552     Br4557   1.929       .  S
C4553      C4554   1.404       .  A
C4554     Br4555   1.925       .  S
C4559      C4560   1.406       .  A
C4559      C4564   1.397       .  A
C4559     Br4566   1.926       .  S
C4560      C4561   1.410       .  A
C4561      C4562   1.405       .  A
C4561     Br4568   1.931       .  S
C4562      C4563   1.416       .  A
C4562     Br4567   1.929       .  S
C4563      C4564   1.412       .  A
C4564     Br4565   1.918       .  S
C4569      C4570   1.394       .  A
C4569      C4574   1.402       .  A
C4569     Br4576   1.922       .  S
C4570      C4571   1.399       .  A
C4571      C4572   1.407       .  A
C4571     Br4578   1.922       .  S
C4572      C4573   1.426       .  A
C4572     Br4577   1.929       .  S
C4573      C4574   1.433       .  A
C4574     Br4575   1.930       .  S
C4579      C4580   1.409       .  A
C4579      C4584   1.414       .  A
C4579     Br4586   1.926       .  S
C4580      C4581   1.409       .  A
C4581      C4582   1.412       .  A
C4581     Br4588   1.928       .  S
C4582      C4583   1.414       .  A
C4582     Br4587   1.931       .  S
C4583      C4584   1.412       .  A
C4584     Br4585   1.929       .  S
C4589      C4590   1.406       .  A
C4589      C4594   1.416       .  A
C4589     Br4596   1.930       .  S
C4590      C4591   1.411       .  A
C4591      C4592   1.414       .  A
C4591     Br4598   1.935       .  S
C4592      C4593   1.422       .  A
C4592     Br4597   1.935       .  S
C4593      C4594   1.425       .  A
C4594     Br4595   1.930       .  S
C4599      C4600   1.405       .  A
C4599      C4604   1.411       .  A
C4599     Br4606   1.938       .  S
C4600      C4601   1.413       .  A
C4601      C4602   1.420       .  A
C4601     Br4608   1.927       .  S
C4602      C4603   1.418       .  A
C4602     Br4607   1.929       .  S
C4603      C4604   1.429       .  A
C4604     Br4605   1.933       .  S
