geometry optimzed in LAMMPS
_audit_creation_date              2020-12-01 
_audit_creation_method            'lammps2cif' 
_symmetry_space_group_name_H-M    'P1' 
_symmetry_Int_Tables_number       1 
_symmetry_cell_setting            triclinic 
loop_ 
_symmetry_equiv_pos_as_xyz 
  x,y,z 
_cell_length_a                    39.28882867 
_cell_length_b                    33.93696833780514 
_cell_length_c                    39.00187755318779 
_cell_angle_alpha                 81.40049714622418 
_cell_angle_beta                  77.78251422582693 
_cell_angle_gamma                 89.99877117093352 
loop_ 
_atom_site_label 
_atom_site_type_symbol 
_atom_site_fract_x 
_atom_site_fract_y 
_atom_site_fract_z 
_atom_site_charge 
Zr1        Zr  0.95058011  0.97608004  0.46322274     2.17500
O2          O  0.90773270  0.98199880  0.42570698    -0.51100
O3          O  0.93340394  0.90516751  0.47842440    -0.74300
O4          O  0.97450118  0.96905877  0.40109818    -0.81100
O5          O  0.88479835  0.01489165  0.53847382    -0.82800
O6          O  0.03359437  0.97598050  0.38869571    -0.78500
O7          O  0.88954123  0.98875555  0.48748929    -0.90100
O8          O  0.96458172  0.87661825  0.51765191    -0.76100
O9          O  0.00440838  0.94478676  0.46679416    -0.85600
O10         O  0.94880655  0.95677208  0.52480926    -0.85200
O11         O  0.99547372  0.02646263  0.43619218    -0.72000
O12         O  0.94354174  0.03623769  0.48925566    -0.84100
Zr13       Zr  0.04068990  0.03607494  0.52911670     2.26400
Zr14       Zr  0.04936738  0.99509213  0.44142776     2.06300
Zr15       Zr  0.94254724  0.01640481  0.55092428     2.10000
Zr16       Zr  0.00283740  0.92656889  0.52838343     1.78800
O17         O  0.91150820  0.07370293  0.57092736    -0.92900
O18         O  0.04433469  0.88062078  0.50165404    -0.40800
O19         O  0.99634577  0.98559324  0.55549573    -0.77400
O20         O  0.04858655  0.97542052  0.50336603    -0.96100
O21         O  0.04295458  0.05517802  0.46735474    -0.89400
O22         O  0.98685625  0.06699796  0.52540875    -0.92200
C23         C  0.94121717  0.87521138  0.49940966     1.01500
C24         C  0.87156662  0.00266458  0.51444031     1.14500
C25         C  0.00451292  0.96996835  0.37985413     1.05200
O26         O  0.08404916  0.93811872  0.42651612    -0.94400
O27         O  0.10801558  0.00479916  0.45110992    -0.90100
O28         O  0.10228314  0.03090742  0.50236583    -0.83300
C29         C  0.12069101  0.01838421  0.47502263     1.11900
O30         O  0.95338445  0.10421388  0.41985154    -0.96300
Zr31       Zr  0.98894496  0.08539214  0.46355979     1.88900
O32         O  0.05202466  0.10818629  0.51939796    -0.73000
O33         O  0.07968668  0.04195836  0.39064610    -0.52300
O34         O  0.02288514  0.12148274  0.40813163    -0.96900
O35         O  0.94643240  0.13280841  0.48597048    -0.54200
O36         O  0.02429523  0.13669499  0.47709510    -0.73500
C37         C  0.04482557  0.13842633  0.49836354     0.98800
O38         O  0.07886330  0.03446320  0.57121396    -0.62300
O39         O  0.90736916  0.96957972  0.59893198    -0.57100
O40         O  0.01906181  0.03177889  0.59321340    -0.93800
O41         O  0.96020370  0.02350584  0.60572175    -0.92200
O42         O  0.97241103  0.88984259  0.58507508    -0.92600
O43         O  0.03916460  0.90274368  0.57011763    -0.91400
C44         C  0.98930098  0.02732983  0.61509700     1.17700
H45         H  0.92928088  0.93857640  0.53579474     0.33600
H46         H  0.07005974  0.96319958  0.50676861     0.44500
H47         H  0.98355804  0.08955030  0.53808244     0.38000
H48         H  0.99505865  0.03496161  0.41156474     0.34500
H49         H  0.04014670  0.85546177  0.51865518     0.26300
H50         H  0.09176035  0.02507159  0.37351141     0.32200
H51         H  0.01717175  0.14982760  0.40876112     0.38100
H52         H  0.96567047  0.91054489  0.60041515     0.32600
H53         H  0.89008044  0.98623423  0.61199194     0.31400
H54         H  0.89555831  0.06271623  0.59359968     0.33100
H55         H  0.95541537  0.14303412  0.50494417     0.32100
H56         H  0.04316972  0.92630819  0.58114324     0.36100
H57         H  0.09224690  0.00985482  0.56933663     0.28800
H58         H  0.91026478  0.95865478  0.41297371     0.33100
H59         H  0.95169380  0.13354900  0.41772557     0.35900
H60         H  0.89342312  0.95328585  0.58754893     0.28500
H61         H  0.09617084  0.05672223  0.56161670     0.41400
H62         H  0.09583508  0.94583086  0.40129838     0.31400
H63         H  0.03567279  0.87458087  0.48088250     0.39100
H64         H  0.92558373  0.11616747  0.49867859     0.30900
H65         H  0.06097786  0.05435271  0.37965715     0.31000
H66         H  0.91560355  0.00543175  0.40725897     0.31200
Zr67       Zr  0.53171076  0.03930694  0.53770095     2.17500
O68         O  0.53136895  0.08985267  0.57616231    -0.51100
O69         O  0.59133037  0.02022947  0.53930928    -0.74300
O70         O  0.51927316  0.01074858  0.60067421    -0.81100
O71         O  0.55730523  0.11768416  0.45485417    -0.82800
O72         O  0.47851852  0.96062221  0.60996311    -0.78500
O73         O  0.56015847  0.10369829  0.51291378    -0.90100
O74         O  0.60520510  0.97227846  0.50438830    -0.76100
O75         O  0.52915558  0.96917753  0.53833851    -0.85600
O76         O  0.55838331  0.02886137  0.47914254    -0.85200
O77         O  0.47062936  0.02140503  0.55342376    -0.72000
O78         O  0.49864125  0.07583084  0.49886421    -0.84100
Zr79       Zr  0.46085976  0.97440054  0.45629057     2.26400
Zr80       Zr  0.46841442  0.95099454  0.55262070     2.06300
Zr81       Zr  0.52491467  0.06357296  0.44050936     2.10000
Zr82       Zr  0.55537029  0.95892465  0.47969595     1.78800
O83         O  0.50373098  0.12595547  0.41440920    -0.92900
O84         O  0.56523502  0.89458394  0.51266741    -0.40800
O85         O  0.52192848  0.99318465  0.44048877    -0.77400
O86         O  0.49508692  0.93810421  0.49430721    -0.96100
O87         O  0.43445835  0.98592970  0.51443955    -0.89400
O88         O  0.46404147  0.04495016  0.45469953    -0.92200
C89         C  0.61268388  0.99570804  0.52490754     1.01500
C90         C  0.56659396  0.12623068  0.48259849     1.14500
C91         C  0.49835890  0.98363275  0.62098790     1.05200
O92         O  0.49082259  0.88863501  0.57720132    -0.94400
O93         O  0.43516882  0.89655431  0.54070031    -0.90100
O94         O  0.43420352  0.90874698  0.48217806    -0.83300
C95         C  0.42699485  0.88692973  0.51285880     1.11900
O96         O  0.43415422  0.11116730  0.54735284    -0.96300
Zr97       Zr  0.43828569  0.05601057  0.51332020     1.88900
O98         O  0.40049464  0.99347089  0.45602979    -0.73000
O99         O  0.41274837  0.94382838  0.59516370    -0.52300
O100        O  0.39137026  0.04768561  0.56604881    -0.96900
O101        O  0.42368290  0.11650496  0.47763818    -0.54200
O102        O  0.38637711  0.03601033  0.49603326    -0.73500
C103        C  0.37846841  0.01431341  0.47452453     0.98800
O104        O  0.45410666  0.93251758  0.41219104    -0.62300
O105        O  0.58040603  0.07227387  0.39761198    -0.57100
O106        O  0.48137440  0.99603185  0.39287364    -0.93800
O107        O  0.51796019  0.05020972  0.38298178    -0.92200
O108        O  0.60559653  0.97089828  0.43022921    -0.92600
O109        O  0.56234533  0.90987922  0.43920066    -0.91400
C110        C  0.50140009  0.02360673  0.37214999     1.17700
H111        H  0.58220235  0.03916687  0.47260918     0.33600
H112        H  0.49433280  0.90987784  0.49332120     0.44500
H113        H  0.45212943  0.05848521  0.43727179     0.38000
H114        H  0.46065664  0.02732377  0.57686889     0.34500
H115        H  0.58720745  0.88559292  0.49886645     0.26300
H116        H  0.41578127  0.92166927  0.61378452     0.32200
H117        H  0.38295722  0.01966558  0.56875743     0.38100
H118        H  0.61511033  0.99761456  0.43122000     0.32600
H119        H  0.58022490  0.09967647  0.38467666     0.31400
H120        H  0.52318893  0.13708341  0.39475087     0.33100
H121        H  0.41036232  0.10741161  0.46121809     0.32100
H122        H  0.53931638  0.89595886  0.44380518     0.36100
H123        H  0.46509441  0.90699332  0.41866070     0.28800
H124        H  0.54961037  0.08224577  0.58974693     0.33100
H125        H  0.41226796  0.12445934  0.54449658     0.35900
H126        H  0.59840580  0.07360217  0.41176741     0.28500
H127        H  0.42884949  0.92589833  0.41656225     0.41400
H128        H  0.47216444  0.87756158  0.59771091     0.31400
H129        H  0.57145439  0.90094208  0.53458702     0.39100
H130        H  0.44609531  0.12719740  0.46226724     0.30900
H131        H  0.41145239  0.96789171  0.60688897     0.31000
H132        H  0.50904604  0.08559156  0.59386524     0.31200
Zr133      Zr  0.20921601  0.48915896  0.45147140     2.17500
O134        O  0.17438088  0.51604168  0.40908251    -0.51100
O135        O  0.18861452  0.42041557  0.45625619    -0.74300
O136        O  0.23740306  0.48282643  0.39068805    -0.81100
O137        O  0.13689499  0.51163671  0.52699390    -0.82800
O138        O  0.29574120  0.49440301  0.38260535    -0.78500
O139        O  0.14711460  0.49645071  0.47098420    -0.90100
O140        O  0.21473720  0.38195590  0.49541251    -0.76100
O141        O  0.26088869  0.45405371  0.45613804    -0.85600
O142        O  0.20033692  0.46019690  0.51236036    -0.85200
O143        O  0.25618869  0.53845987  0.43316272    -0.72000
O144        O  0.19960046  0.54350797  0.48493033    -0.84100
Zr145      Zr  0.28958149  0.52746691  0.53493416     2.26400
Zr146      Zr  0.30783238  0.50305684  0.44033414     2.06300
Zr147      Zr  0.19210790  0.51435192  0.54587553     2.10000
Zr148      Zr  0.25201111  0.42517675  0.51678156     1.78800
O149        O  0.16433567  0.57441181  0.56371389    -0.92900
O150        O  0.29145915  0.37916973  0.48725970    -0.40800
O151        O  0.24325135  0.47804139  0.55193526    -0.77400
O152        O  0.29962874  0.47270853  0.50144745    -0.96100
O153        O  0.29893932  0.55718847  0.47411542    -0.89400
O154        O  0.23857244  0.56335613  0.52915189    -0.92200
C155        C  0.19364622  0.38681626  0.47423866     1.01500
C156        C  0.12671195  0.50463165  0.49917037     1.14500
C157        C  0.26826514  0.48741011  0.37103834     1.05200
O158        O  0.34190291  0.44749333  0.42083844    -0.94400
O159        O  0.36402217  0.50681104  0.45792008    -0.90100
O160        O  0.35115741  0.51663573  0.51550514    -0.83300
C161        C  0.37276903  0.51065720  0.48730108     1.11900
O162        O  0.21560207  0.61828643  0.42246656    -0.96300
Zr163      Zr  0.24706849  0.59126146  0.46793313     1.88900
O164        O  0.30486688  0.59742452  0.53280553    -0.73000
O165        O  0.34560865  0.55190769  0.39664323    -0.52300
O166        O  0.28770171  0.63107269  0.41911214    -0.96900
O167        O  0.20541437  0.63997360  0.48941385    -0.54200
O168        O  0.27884585  0.63529450  0.49339183    -0.73500
C169        C  0.29806297  0.63110052  0.51625645     0.98800
O170        O  0.32023640  0.51793855  0.58369831    -0.62300
O171        O  0.15117932  0.47243044  0.59286207    -0.57100
O172        O  0.26241234  0.51901621  0.59812391    -0.93800
O173        O  0.20373240  0.51433767  0.60495342    -0.92200
O174        O  0.21812870  0.38622742  0.57063552    -0.92600
O175        O  0.28716720  0.39183491  0.55616028    -0.91400
C176        C  0.23139239  0.51548669  0.61750451     1.17700
H177        H  0.17993667  0.44253738  0.51955332     0.33600
H178        H  0.31979071  0.45805404  0.50561156     0.44500
H179        H  0.23481210  0.58354403  0.54443898     0.38000
H180        H  0.25799974  0.55017618  0.40865287     0.34500
H181        H  0.28171600  0.35229179  0.49849912     0.26300
H182        H  0.35696650  0.53670903  0.37778201     0.32200
H183        H  0.28126861  0.65906117  0.42069774     0.38100
H184        H  0.20520443  0.40623923  0.58389484     0.32600
H185        H  0.12886508  0.48639082  0.59517944     0.31400
H186        H  0.14972778  0.56545114  0.58762940     0.33100
H187        H  0.21049243  0.64447925  0.51234996     0.32100
H188        H  0.28901389  0.41093785  0.57260163     0.36100
H189        H  0.33102785  0.49161119  0.58301754     0.28800
H190        H  0.16961258  0.49342773  0.39724024     0.33100
H191        H  0.21894477  0.64761621  0.41941246     0.35900
H192        H  0.14706010  0.44831219  0.58265144     0.28500
H193        H  0.33995757  0.53770172  0.57705720     0.41400
H194        H  0.34473074  0.43073527  0.44305303     0.31400
H195        H  0.28737669  0.38192696  0.46282609     0.39100
H196        H  0.18262812  0.62529406  0.49598747     0.30900
H197        H  0.32950480  0.56948526  0.38560783     0.31000
H198        H  0.19009210  0.53477856  0.39057321     0.31200
Zr199      Zr  0.70519567  0.48239048  0.47130825     2.17500
O200        O  0.66992386  0.50803179  0.42892947    -0.51100
O201        O  0.68950805  0.41379605  0.47029232    -0.74300
O202        O  0.73334209  0.47802686  0.41041303    -0.81100
O203        O  0.63049551  0.50071664  0.54652180    -0.82800
O204        O  0.79159274  0.48941826  0.40260050    -0.78500
O205        O  0.64309755  0.48519893  0.49064435    -0.90100
O206        O  0.71713481  0.37439052  0.50728080    -0.76100
O207        O  0.75660086  0.44710044  0.47607570    -0.85600
O208        O  0.69534505  0.45114869  0.53164083    -0.85200
O209        O  0.75102144  0.53269225  0.45408936    -0.72000
O210        O  0.69399265  0.53584684  0.50578050    -0.84100
Zr211      Zr  0.78417005  0.51856595  0.55557815     2.26400
Zr212      Zr  0.80249737  0.49700867  0.46053960     2.06300
Zr213      Zr  0.68566407  0.50433222  0.56627640     2.10000
Zr214      Zr  0.74736585  0.41700838  0.53651954     1.78800
O215        O  0.65120802  0.55902940  0.58730394    -0.92900
O216        O  0.78914399  0.36890245  0.51420399    -0.40800
O217        O  0.73747314  0.46919923  0.57226134    -0.77400
O218        O  0.79453525  0.46526104  0.52090263    -0.96100
O219        O  0.79298232  0.54958954  0.49547542    -0.89400
O220        O  0.73227457  0.55357696  0.55080658    -0.92200
C221        C  0.69699701  0.37963417  0.48517726     1.01500
C222        C  0.62161271  0.49317741  0.51811974     1.14500
C223        C  0.76424393  0.48236510  0.39105843     1.05200
O224        O  0.83682127  0.44110929  0.44211125    -0.94400
O225        O  0.85770348  0.50398817  0.47821534    -0.90100
O226        O  0.84699731  0.51685403  0.53497335    -0.83300
C227        C  0.86773127  0.51076039  0.50615286     1.11900
O228        O  0.71244971  0.61297847  0.44348606    -0.96300
Zr229      Zr  0.74131253  0.58412126  0.49047743     1.88900
O230        O  0.80402487  0.58713132  0.55299564    -0.73000
O231        O  0.83997221  0.54622027  0.41684975    -0.52300
O232        O  0.78042412  0.62701663  0.44261196    -0.96900
O233        O  0.69972355  0.63133174  0.51499475    -0.54200
O234        O  0.77657023  0.62596930  0.51518838    -0.73500
C235        C  0.79788503  0.62095462  0.53609667     0.98800
O236        O  0.81362506  0.48431773  0.60023952    -0.62300
O237        O  0.64965229  0.45554272  0.61177312    -0.57100
O238        O  0.75595992  0.52552703  0.61583421    -0.93800
O239        O  0.69816962  0.51048466  0.62413147    -0.92200
O240        O  0.70947048  0.37523135  0.58624561    -0.92600
O241        O  0.77997983  0.38777232  0.58008102    -0.91400
C242        C  0.72529814  0.51895902  0.63558217     1.17700
H243        H  0.67538478  0.43284023  0.53751031     0.33600
H244        H  0.81534960  0.45162097  0.52466020     0.44500
H245        H  0.72835181  0.57338054  0.56651010     0.38000
H246        H  0.75278164  0.54494475  0.42971597     0.34500
H247        H  0.77813057  0.34252605  0.52531397     0.26300
H248        H  0.85880502  0.53060609  0.40466012     0.32200
H249        H  0.80391622  0.61662696  0.44296964     0.38100
H250        H  0.69183315  0.36308540  0.57592311     0.32600
H251        H  0.62569102  0.46548423  0.61432374     0.31400
H252        H  0.63351170  0.54615921  0.60795903     0.33100
H253        H  0.70570301  0.63503144  0.53774984     0.32100
H254        H  0.77798953  0.40686373  0.59720845     0.36100
H255        H  0.79520567  0.46869532  0.61847612     0.28800
H256        H  0.66738669  0.48599423  0.41553494     0.33100
H257        H  0.71346390  0.64215501  0.44334213     0.30300
H258        H  0.64906685  0.43124761  0.60066174     0.28500
H259        H  0.82731244  0.46361628  0.58859938     0.41400
H260        H  0.86085919  0.45227558  0.43288338     0.31400
H261        H  0.78850247  0.37061132  0.48877920     0.39100
H262        H  0.67711660  0.61628153  0.52198635     0.30900
H263        H  0.82631194  0.55539815  0.39871470     0.31000
H264        H  0.68473610  0.52870087  0.41155652     0.31200
Zr265      Zr  0.96778578  0.03831342  0.95609820     2.17500
O266        O  0.95805298  0.09575741  0.91395003    -0.51100
O267        O  0.90763603  0.01567010  0.96524779    -0.74300
O268        O  0.97438201  0.02317503  0.89560086    -0.81100
O269        O  0.95492502  0.10286229  0.02983656    -0.82800
O270        O  0.01261208  0.97343444  0.88834831    -0.78500
O271        O  0.94503489  0.10016721  0.97479207    -0.90100
O272        O  0.89794654  0.96029525  0.00684785    -0.76100
O273        O  0.97205000  0.96767665  0.96274067    -0.85600
O274        O  0.94789894  0.01472661  0.01802232    -0.85200
O275        O  0.02815048  0.02685935  0.93407918    -0.72000
O276        O  0.00522938  0.06928311  0.98605105    -0.84100
Zr277      Zr  0.05036653  0.96187094  0.03406537     2.26400
Zr278      Zr  0.03259189  0.95558134  0.94312226     2.06300
Zr279      Zr  0.98617572  0.04422830  0.04790027     2.10000
Zr280      Zr  0.95242966  0.94419566  0.02437269     1.78800
O281        O  0.01353782  0.09872967  0.06759611    -0.92900
O282        O  0.93727084  0.88740580  0.99841511    -0.40800
O283        O  0.98985168  0.97327931  0.05553554    -0.77400
O284        O  0.01236960  0.92992712  0.00489663    -0.96100
O285        O  0.07035337  0.98609036  0.97271738    -0.89400
O286        O  0.04668402  0.03264991  0.02743801    -0.92200
C287        C  0.88774713  0.98758620  0.98514321     1.01500
C288        C  0.94305385  0.11716676  0.00242907     1.14500
C289        C  0.99213822  0.99910435  0.87674441     1.05200
O290        O  0.01407422  0.89286399  0.92833815    -0.94400
O291        O  0.07136717  0.90221515  0.95549531    -0.90100
O292        O  0.07633255  0.90259304  0.01235425    -0.83300
C293        C  0.08215899  0.88754989  0.98339306     1.11900
O294        O  0.06644548  0.12005547  0.92649834    -0.96300
Zr295      Zr  0.06500141  0.05642021  0.96537230     1.88900
O296        O  0.11056071  0.98517851  0.02262519    -0.73000
O297        O  0.08508856  0.96399665  0.89623686    -0.52300
O298        O  0.10459905  0.05566850  0.90816783    -0.96900
O299        O  0.08150920  0.11360658  0.99007632    -0.54200
O300        O  0.12014382  0.03770160  0.97800590    -0.73500
C301        C  0.13046602  0.01105960  0.99989667     0.98800
O302        O  0.06486379  0.91295371  0.08101129    -0.62300
O303        O  0.93273628  0.05024682  0.09145850    -0.57100
O304        O  0.03978375  0.97053783  0.09635983    -0.93800
O305        O  0.99527473  0.01310326  0.10577768    -0.92200
O306        O  0.91074280  0.94157937  0.08071808    -0.92600
O307        O  0.95349663  0.88093066  0.06297385    -0.91400
C308        C  0.01713170  0.98872957  0.11669489     1.17700
H309        H  0.92435145  0.02246049  0.02675336     0.33600
H310        H  0.01404891  0.90129865  0.00896081     0.44500
H311        H  0.06090223  0.04383813  0.04119315     0.38000
H312        H  0.03516876  0.03775246  0.90923522     0.34500
H313        H  0.91249876  0.88088172  0.00975839     0.26300
H314        H  0.08149718  0.94533983  0.87999175     0.32200
H315        H  0.12514609  0.07232222  0.90860304     0.38100
H316        H  0.89194165  0.92281631  0.07935006     0.32600
H317        H  0.92798140  0.02344390  0.10584607     0.31400
H318        H  0.02193782  0.08643712  0.08880607     0.33100
H319        H  0.09652995  0.10300924  0.00651024     0.32100
H320        H  0.97514904  0.88264452  0.07192920     0.36100
H321        H  0.05238640  0.88785629  0.08022465     0.28800
H322        H  0.94044120  0.08683490  0.90172690     0.33100
H323        H  0.09068051  0.13085432  0.92193738     0.35900
H324        H  0.93951952  0.06720446  0.10764637     0.28500
H325        H  0.08990123  0.90776302  0.07315878     0.41400
H326        H  0.00699120  0.87515942  0.95141825     0.31400
H327        H  0.93697727  0.89828619  0.97347163     0.39100
H328        H  0.05975959  0.12057020  0.00567921     0.30900
H329        H  0.08357587  0.99081352  0.88272486     0.31000
H330        H  0.97993441  0.10012518  0.89561145     0.31200
Zr331      Zr  0.46777853  0.03263112  0.95257138     2.17500
O332        O  0.46931248  0.08606851  0.90294316    -0.51100
O333        O  0.40733525  0.01279950  0.96211321    -0.74300
O334        O  0.47057311  0.00581557  0.89697430    -0.81100
O335        O  0.45363181  0.10703846  0.01809894    -0.82800
O336        O  0.50457580  0.95168718  0.89800401    -0.78500
O337        O  0.43963835  0.09390027  0.96720819    -0.90100
O338        O  0.39480361  0.96478058  0.01060986    -0.76100
O339        O  0.46626781  0.96213722  0.97002957    -0.85600
O340        O  0.44782646  0.02033714  0.01549786    -0.85200
O341        O  0.52648816  0.01310419  0.93350493    -0.72000
O342        O  0.50792392  0.06818772  0.97633286    -0.84100
Zr343      Zr  0.54687449  0.96493571  0.03847242     2.26400
Zr344      Zr  0.52487095  0.94248716  0.95293531     2.06300
Zr345      Zr  0.48845085  0.05393254  0.03938206     2.10000
Zr346      Zr  0.44722293  0.95032662  0.03284037     1.78800
O347        O  0.51499265  0.11554185  0.04803790    -0.92900
O348        O  0.42598608  0.88698957  0.02163811    -0.40800
O349        O  0.48773667  0.98352353  0.05784049    -0.77400
O350        O  0.50553595  0.92892381  0.01609859    -0.96100
O351        O  0.56607212  0.97703002  0.97570854    -0.89400
O352        O  0.54748571  0.03534769  0.02144224    -0.92200
C353        C  0.38626159  0.98855874  0.98524657     1.01500
C354        C  0.43831115  0.11529344  0.99204309     1.14500
C355        C  0.48591039  0.97675230  0.88284000     1.05200
O356        O  0.49416810  0.87943682  0.95547114    -0.94400
O357        O  0.56201126  0.89088651  0.97231890    -0.90100
O358        O  0.56885903  0.90005430  0.02701488    -0.83300
C359        C  0.57292554  0.88021727  0.00094910     1.11900
O360        O  0.56708904  0.10610464  0.91404431    -0.96300
Zr361      Zr  0.56615214  0.04721522  0.95851015     1.88900
O362        O  0.60898275  0.98226687  0.02275169    -0.73000
O363        O  0.57157221  0.93086190  0.90366708    -0.52300
O364        O  0.60358637  0.03953821  0.90173707    -0.96900
O365        O  0.59134041  0.10460422  0.97640299    -0.54200
O366        O  0.62078857  0.02415404  0.97037487    -0.73500
C367        C  0.63015216  0.00174334  0.99588397     0.98800
O368        O  0.55495125  0.92226162  0.09210512    -0.62300
O369        O  0.43668821  0.05997255  0.08522454    -0.57100
O370        O  0.54138883  0.98837210  0.09562139    -0.93800
O371        O  0.50595601  0.04110242  0.09559906    -0.92200
O372        O  0.40522119  0.96448648  0.08472890    -0.92600
O373        O  0.44405434  0.89788573  0.08352130    -0.91400
C374        C  0.52471226  0.01604591  0.11060265     1.17700
H375        H  0.42487901  0.03048441  0.02269765     0.33600
H376        H  0.50548052  0.90065689  0.02434763     0.44500
H377        H  0.56269805  0.04842581  0.03301291     0.38000
H378        H  0.53362555  0.01898023  0.90798511     0.34500
H379        H  0.40246217  0.88267134  0.03723610     0.26300
H380        H  0.56233375  0.90948452  0.89309139     0.32200
H381        H  0.60649363  0.01041655  0.90298853     0.38100
H382        H  0.38234042  0.95571561  0.08120158     0.32600
H383        H  0.43689672  0.03692303  0.10401430     0.31400
H384        H  0.50044192  0.12242399  0.07021849     0.33100
H385        H  0.60630571  0.09351419  0.99274080     0.32100
H386        H  0.46836765  0.89528623  0.08662796     0.36100
H387        H  0.53957736  0.89842810  0.09457094     0.28800
H388        H  0.45041132  0.07923398  0.89140646     0.33100
H389        H  0.59167177  0.11599287  0.90720473     0.35900
H390        H  0.44174305  0.08347739  0.09583445     0.28500
H391        H  0.57899919  0.91262598  0.08661676     0.41400
H392        H  0.50933592  0.86579323  0.93751498     0.31400
H393        H  0.42158682  0.89262287  0.99732576     0.39100
H394        H  0.57157497  0.11594108  0.99170513     0.30900
H395        H  0.57299285  0.95500451  0.88562990     0.31000
H396        H  0.49118127  0.08264483  0.88575368     0.31200
Zr397      Zr  0.20541227  0.53104869  0.95918116     2.17500
O398        O  0.18761622  0.58441984  0.91806752    -0.51100
O399        O  0.14350854  0.51276125  0.97874734    -0.74300
O400        O  0.20560593  0.51176736  0.90077964    -0.81100
O401        O  0.21110777  0.60876954  0.02043414    -0.82800
O402        O  0.23662554  0.45581747  0.89595526    -0.78500
O403        O  0.19174941  0.59798560  0.97171179    -0.90100
O404        O  0.13585098  0.46223462  0.02503445    -0.76100
O405        O  0.20201629  0.46038436  0.97587461    -0.85600
O406        O  0.19356558  0.51894098  0.02238057    -0.85200
O407        O  0.26207582  0.51006277  0.93269374    -0.72000
O408        O  0.25260776  0.56287561  0.97632268    -0.84100
Zr409      Zr  0.29356680  0.45632559  0.03116644     2.26400
Zr410      Zr  0.25851665  0.43910105  0.95010630     2.06300
Zr411      Zr  0.24068703  0.54947936  0.03974616     2.10000
Zr412      Zr  0.19153013  0.44851591  0.03922555     1.78800
O413        O  0.27522063  0.60651883  0.04590891    -0.92900
O414        O  0.16883865  0.38280721  0.03542399    -0.40800
O415        O  0.23792950  0.47896082  0.05741608    -0.77400
O416        O  0.24672201  0.42388556  0.01385806    -0.96100
O417        O  0.30568413  0.46912112  0.96804073    -0.89400
O418        O  0.29710606  0.52703935  0.01512103    -0.92200
C419        C  0.12425772  0.48757619  0.00295680     1.01500
C420        C  0.19558620  0.61982910  0.99491781     1.14500
C421        C  0.21886934  0.48403841  0.88334685     1.05200
O422        O  0.22297717  0.38137645  0.94711450    -0.94400
O423        O  0.29374051  0.38318124  0.96472675    -0.90100
O424        O  0.31421173  0.39347732  0.01309703    -0.83300
C425        C  0.31141161  0.37308178  0.98858861     1.11900
O426        O  0.30938115  0.59453776  0.90381941    -0.96300
Zr427      Zr  0.30866295  0.53944201  0.95192286     1.88900
O428        O  0.35536977  0.47158579  0.01135402    -0.73000
O429        O  0.30373962  0.42788012  0.89945835    -0.52300
O430        O  0.34074854  0.52564624  0.89448242    -0.96900
O431        O  0.33513837  0.59963631  0.96364795    -0.54200
O432        O  0.36502294  0.51813559  0.96175445    -0.73500
C433        C  0.37545142  0.49318295  0.98509098     0.98800
O434        O  0.30559200  0.40929530  0.08060695    -0.62300
O435        O  0.19273581  0.56048612  0.08794580    -0.57100
O436        O  0.29185417  0.47455730  0.09005680    -0.93800
O437        O  0.26060601  0.53048254  0.09462608    -0.92200
O438        O  0.15359663  0.46643167  0.09235327    -0.92600
O439        O  0.19312821  0.40281434  0.09331985    -0.91400
C440        C  0.27807497  0.50210354  0.10746407     1.17700
H441        H  0.17190422  0.53055008  0.03213834     0.33600
H442        H  0.24626067  0.39539397  0.02147442     0.44500
H443        H  0.31497211  0.53868407  0.02444395     0.38000
H444        H  0.26715841  0.51728630  0.90718315     0.34500
H445        H  0.14970917  0.37649343  0.05667317     0.26300
H446        H  0.29223930  0.41152570  0.88590707     0.32200
H447        H  0.35246457  0.50033622  0.89982300     0.38100
H448        H  0.13895158  0.48795796  0.08395913     0.32600
H449        H  0.18999520  0.53533611  0.10494347     0.31400
H450        H  0.26119284  0.61746872  0.06635541     0.33100
H451        H  0.35069881  0.59028233  0.97989595     0.32100
H452        H  0.21598202  0.39014694  0.08826712     0.36100
H453        H  0.28930062  0.38625487  0.08317804     0.28800
H454        H  0.16855734  0.57289139  0.90927637     0.33100
H455        H  0.33405554  0.60388933  0.89569511     0.35900
H456        H  0.20216442  0.58017669  0.10015095     0.28500
H457        H  0.32905451  0.39916911  0.07221901     0.41400
H458        H  0.22973398  0.35941715  0.96384948     0.31400
H459        H  0.15688257  0.38724788  0.01529696     0.39100
H460        H  0.31584321  0.61224276  0.97845075     0.30900
H461        H  0.30830424  0.45422477  0.88424615     0.31000
H462        H  0.20742127  0.58932967  0.89733106     0.31200
Zr463      Zr  0.70500925  0.53007197  0.97497115     2.17500
O464        O  0.70125957  0.58835161  0.93095540    -0.51100
O465        O  0.64528496  0.50747508  0.97965010    -0.74300
O466        O  0.71043012  0.51504678  0.91516472    -0.81100
O467        O  0.69383953  0.59761718  0.04614595    -0.82800
O468        O  0.74286325  0.46027457  0.90924396    -0.78500
O469        O  0.68156006  0.59162593  0.99277748    -0.90100
O470        O  0.63323188  0.45277522  0.02197495    -0.76100
O471        O  0.70360206  0.45917469  0.98460878    -0.85600
O472        O  0.68344526  0.51002495  0.03709665    -0.85200
O473        O  0.76417418  0.51268037  0.95377638    -0.72000
O474        O  0.74486179  0.55962839  0.00346630    -0.84100
Zr475      Zr  0.78242194  0.44937346  0.05525963     2.26400
Zr476      Zr  0.76233845  0.44112475  0.96475714     2.06300
Zr477      Zr  0.72367943  0.53815657  0.06564722     2.10000
Zr478      Zr  0.68394165  0.43908134  0.04677335     1.78800
O479        O  0.74493262  0.59664703  0.08511382    -0.92900
O480        O  0.66844260  0.37652999  0.02931684    -0.40800
O481        O  0.72338206  0.46680152  0.07663375    -0.77400
O482        O  0.74237982  0.41922922  0.02729668    -0.96100
O483        O  0.80264622  0.46946199  0.99316553    -0.89400
O484        O  0.78283764  0.52040228  0.04599593    -0.92200
C485        C  0.62496038  0.47880338  0.99807154     1.01500
C486        C  0.68091832  0.61050486  0.01904394     1.14500
C487        C  0.72488800  0.48862736  0.89708063     1.05200
O488        O  0.73218317  0.38255932  0.95473875    -0.94400
O489        O  0.79846158  0.38605217  0.98063124    -0.90100
O490        O  0.81215085  0.39253726  0.03327300    -0.83300
C491        C  0.81377757  0.37455447  0.00627527     1.11900
O492        O  0.80743889  0.59893588  0.93889652    -0.96300
Zr493      Zr  0.80340510  0.54011377  0.98400080     1.88900
O494        O  0.84363126  0.46686446  0.04763397    -0.73000
O495        O  0.81161985  0.43727516  0.91567145    -0.52300
O496        O  0.84681411  0.53137604  0.93122923    -0.96900
O497        O  0.82336864  0.59982423  0.00288106    -0.54200
O498        O  0.85588112  0.52038084  0.00405829    -0.73500
C499        C  0.86466487  0.49331899  0.02689614     0.98800
O500        O  0.78199331  0.39193505  0.10147771    -0.62300
O501        O  0.67023912  0.53170830  0.11142356    -0.57100
O502        O  0.77888045  0.46745744  0.11398377    -0.93800
O503        O  0.74481769  0.52126722  0.12011340    -0.92200
O504        O  0.63746660  0.44712662  0.09730668    -0.92600
O505        O  0.67795010  0.38370114  0.09535856    -0.91400
C506        C  0.76396865  0.49398913  0.13180201     1.17700
H507        H  0.66028725  0.51946193  0.04467468     0.33600
H508        H  0.74305579  0.39052525  0.03265085     0.44500
H509        H  0.79785225  0.53132348  0.05913019     0.38000
H510        H  0.77184782  0.52233938  0.92869629     0.34500
H511        H  0.66311268  0.38418433  0.00555939     0.26300
H512        H  0.80350317  0.41898666  0.90130738     0.32200
H513        H  0.85167660  0.50258836  0.93440037     0.38100
H514        H  0.61732508  0.43151484  0.09422724     0.32600
H515        H  0.67286522  0.50712641  0.12773921     0.31400
H516        H  0.72631170  0.60205111  0.10515730     0.33100
H517        H  0.83785576  0.59025662  0.02014875     0.32100
H518        H  0.70111617  0.38235153  0.10159934     0.36100
H519        H  0.76206699  0.39550673  0.12093538     0.28800
H520        H  0.68376398  0.58144179  0.91770729     0.33100
H521        H  0.83243681  0.60719407  0.93222675     0.35900
H522        H  0.67205327  0.55359885  0.12517793     0.28500
H523        H  0.77449372  0.36865156  0.09202631     0.41400
H524        H  0.74719179  0.37417189  0.93347133     0.31400
H525        H  0.69039227  0.36200875  0.02475074     0.39100
H526        H  0.80218884  0.60962487  0.01738611     0.30900
H527        H  0.81351353  0.46382797  0.90077110     0.31000
H528        H  0.72386439  0.59050971  0.91364463     0.31200
C529        C  0.47260255  0.51447582  0.96581084    -0.28000
C530        C  0.48478955  0.47661366  0.97627800     0.05600
C531        C  0.46094132  0.44403615  0.98792151     0.25200
C532        C  0.42542079  0.44975255  0.99043966    -0.12500
C533        C  0.41313917  0.48786632  0.98112367    -0.26400
C534        C  0.43705767  0.52015362  0.96814578     0.36100
C535        C  0.52140895  0.47271393  0.97961229     0.05600
F536        F  0.47192069  0.40687350  0.99752202    -0.20200
H537        H  0.40741794  0.42435354  0.99988124     0.15500
F538        F  0.42596770  0.55753493  0.95975794    -0.23900
H539        H  0.49044640  0.54011945  0.95755080     0.17300
C540        C  0.54895439  0.49008795  0.95233118     0.25300
C541        C  0.58271148  0.49159224  0.95833163    -0.12400
C542        C  0.58954981  0.47541096  0.99143135    -0.26500
C543        C  0.56216249  0.45628516  0.01808470     0.36200
C544        C  0.52848492  0.45522543  0.01216877    -0.28100
F545        F  0.54313502  0.50600459  0.92010166    -0.20200
H546        H  0.60348696  0.50563947  0.93713363     0.15500
F547        F  0.56739558  0.44033747  0.05054206    -0.23900
H548        H  0.50756765  0.44230322  0.03376137     0.17300
C549        C  0.03401787  0.50991402  0.98605356    -0.28000
C550        C  0.01277272  0.49015695  0.01755536     0.05600
C551        C  0.02837652  0.46895719  0.04357968     0.25200
C552        C  0.06452617  0.46815724  0.03834198    -0.12500
C553        C  0.08597265  0.48815444  0.00695483    -0.26400
C554        C  0.07029018  0.50899892  0.98068449     0.36100
C555        C  0.97443638  0.49129565  0.02277885     0.05600
F556        F  0.00873347  0.44965595  0.07442853    -0.20200
H557        H  0.07568585  0.45211700  0.05926726     0.15500
F558        F  0.08980309  0.52792940  0.94962176    -0.23900
H559        H  0.02245980  0.52566721  0.96530287     0.17300
C560        C  0.95806681  0.52757130  0.01599968     0.25300
C561        C  0.92215223  0.52802641  0.01860044    -0.12400
C562        C  0.90182625  0.49247605  0.02841103    -0.26500
C563        C  0.91798235  0.45632040  0.03666440     0.36200
C564        C  0.95403989  0.45582760  0.03358972    -0.28100
F565        F  0.97678962  0.56259303  0.00680664    -0.20200
H566        H  0.91022320  0.55627248  0.01252187     0.15500
F567        F  0.89935614  0.42122758  0.04573042    -0.23900
H568        H  0.96617996  0.42748807  0.03853737     0.17300
C569        C  0.38915029  0.20509745  0.95967091    -0.28000
C570        C  0.38177625  0.22405513  0.98987785     0.05600
C571        C  0.39168297  0.20632617  0.02101628     0.25200
C572        C  0.40945672  0.17074502  0.02155244    -0.12500
C573        C  0.41787306  0.15209670  0.99104318    -0.26400
C574        C  0.40721521  0.16957343  0.96005177     0.36100
C575        C  0.36423046  0.26257258  0.98865633     0.05600
F576        F  0.38399138  0.22331582  0.05101558    -0.20200
H577        H  0.41678227  0.15790141  0.04599118     0.15500
F578        F  0.41520079  0.15326616  0.92974257    -0.23900
H579        H  0.38173140  0.21845491  0.93541799     0.17300
C580        C  0.37882808  0.29558253  0.99894887     0.25300
C581        C  0.36146096  0.33144000  0.99894186    -0.12400
C582        C  0.32962246  0.33518799  0.98805419    -0.26500
C583        C  0.31539765  0.30243043  0.97699670     0.36200
C584        C  0.33262958  0.26642699  0.97734199    -0.28100
F585        F  0.41020154  0.29334680  0.00836354    -0.20200
H586        H  0.37311830  0.35647493  0.00705572     0.15500
F587        F  0.28425375  0.30474113  0.96710902    -0.23900
H588        H  0.32097772  0.24125919  0.96941458     0.17300
C589        C  0.60422467  0.78139617  0.03983742    -0.28000
C590        C  0.62298064  0.76778508  0.00926292     0.05600
C591        C  0.62554985  0.79176345  0.97601844     0.25200
C592        C  0.60972687  0.82861326  0.97363590    -0.12500
C593        C  0.59081986  0.84209321  0.00420213    -0.26400
C594        C  0.58797511  0.81800995  0.03739405     0.36100
C595        C  0.63790089  0.72761572  0.01206618     0.05600
F596        F  0.64330263  0.77960765  0.94580602    -0.20200
H597        H  0.61211144  0.84657999  0.94777359     0.15500
F598        F  0.56782871  0.82868645  0.06716589    -0.23900
H599        H  0.60100533  0.76290236  0.06553983     0.17300
C600        C  0.65847835  0.71535924  0.03694099     0.25300
C601        C  0.67203068  0.67716834  0.03935023    -0.12400
C602        C  0.66495153  0.65023482  0.01741348    -0.26500
C603        C  0.64339329  0.66226508  0.99329281     0.36200
C604        C  0.63033914  0.70060892  0.99056384    -0.28100
F605        F  0.66596140  0.74048474  0.05854065    -0.20200
H606        H  0.68844594  0.66887507  0.05817750     0.15500
F607        F  0.63417164  0.63682828  0.97281663    -0.23900
H608        H  0.61361093  0.70897107  0.97204796     0.17300
C609        C  0.79959361  0.02173814  0.96971810    -0.28000
C610        C  0.77781326  0.98930371  0.98819642     0.05600
C611        C  0.79252862  0.95539957  0.00389516     0.25200
C612        C  0.82840973  0.95459808  0.00190238    -0.12500
C613        C  0.85027758  0.98749870  0.98415506    -0.26400
C614        C  0.83544757  0.02097556  0.96753458     0.36100
C615        C  0.73990116  0.99122009  0.99041834     0.05600
F616        F  0.77231076  0.92289932  0.02079543    -0.20200
H617        H  0.83900607  0.92823898  0.01458658     0.15500
F618        F  0.85522313  0.05355992  0.95000541    -0.23900
H619        H  0.78867699  0.04812894  0.95744192     0.17300
C620        C  0.71610880  0.98317678  0.02324693     0.25300
C621        C  0.68039974  0.98599662  0.02478124    -0.12400
C622        C  0.66789717  0.99789797  0.99379831    -0.26500
C623        C  0.69185353  0.00619792  0.96092482     0.36200
C624        C  0.72744451  0.00269609  0.95940131    -0.28100
F625        F  0.72740557  0.97428467  0.05397474    -0.20200
H626        H  0.66256895  0.97988413  0.05038904     0.15500
F627        F  0.68104092  0.01715548  0.93011630    -0.23900
H628        H  0.74540273  0.00895130  0.93386520     0.17300
C629        C  0.22680422  0.01456859  0.96177838    -0.28000
C630        C  0.23957015  0.99783715  0.99144177     0.05600
C631        C  0.21641197  0.98712606  0.02436837     0.25200
C632        C  0.18083292  0.99218713  0.02718275    -0.12500
C633        C  0.16805724  0.00874514  0.99745368    -0.26400
C634        C  0.19140724  0.02044703  0.96470494     0.36100
C635        C  0.27728665  0.99395611  0.98802840     0.05600
F636        F  0.22820188  0.97277168  0.05395354    -0.20200
H637        H  0.16326754  0.98338389  0.05265801     0.15500
F638        F  0.18008187  0.03637480  0.93520529    -0.23900
H639        H  0.24434226  0.02300240  0.93622010     0.17300
C640        C  0.29135319  0.95819380  0.00107141     0.25300
C641        C  0.32709783  0.95618832  0.99929035    -0.12400
C642        C  0.34925349  0.98946190  0.98370473    -0.26500
C643        C  0.33518070  0.02461543  0.96914261     0.36200
C644        C  0.29947009  0.02680407  0.97165163    -0.28100
F645        F  0.27062813  0.92524279  0.01523220    -0.20200
H646        H  0.33744956  0.92868118  0.01024445     0.15500
F647        F  0.35556238  0.05757441  0.95398242    -0.23900
H648        H  0.28899687  0.05462095  0.96150609     0.17300
C649        C  0.91150282  0.21988811  0.97315658    -0.28000
C650        C  0.89066491  0.22843826  0.00504202     0.05600
C651        C  0.88752704  0.20013583  0.03596998     0.25200
C652        C  0.90533090  0.16453166  0.03496990    -0.12500
C653        C  0.92566704  0.15576419  0.00301074    -0.26400
C654        C  0.92868671  0.18385662  0.97200366     0.36100
C655        C  0.87154082  0.26624295  0.00535594     0.05600
F656        F  0.86604810  0.20595170  0.06683786    -0.20200
H657        H  0.90230294  0.14312858  0.05907017     0.15500
F658        F  0.94886498  0.17696884  0.94077919    -0.23900
H659        H  0.91456110  0.24126647  0.94904240     0.17300
C660        C  0.87154312  0.29026169  0.03181513     0.25300
C661        C  0.85313124  0.32552066  0.03163566    -0.12400
C662        C  0.83424751  0.33771835  0.00516364    -0.26500
C663        C  0.83458103  0.31376172  0.97850863     0.36200
C664        C  0.85310100  0.27860450  0.97867281    -0.28100
F665        F  0.88985818  0.28016921  0.05751674    -0.20200
H666        H  0.85367956  0.34324268  0.05242856     0.15500
F667        F  0.81653728  0.32366997  0.95255346    -0.23900
H668        H  0.85248425  0.26052637  0.95814304     0.17300
C669        C  0.13551901  0.80080777  0.95228001    -0.28000
C670        C  0.13463989  0.77594015  0.98476251     0.05600
C671        C  0.11705177  0.78858761  0.01635195     0.25200
C672        C  0.10094124  0.82519909  0.01545602    -0.12500
C673        C  0.10130406  0.84991330  0.98309954    -0.26400
C674        C  0.11887552  0.83739206  0.95132455     0.36100
C675        C  0.15166315  0.73676682  0.98591757     0.05600
F676        F  0.11423333  0.76487630  0.04815663    -0.20200
H677        H  0.08723005  0.83367288  0.04028447     0.15500
F678        F  0.12046513  0.86061168  0.91945736    -0.23900
H679        H  0.14929421  0.79200082  0.92761880     0.17300
C680        C  0.14607792  0.70958290  0.96361155     0.25300
C681        C  0.16075844  0.67200811  0.96645089    -0.12400
C682        C  0.18106293  0.66041320  0.99178936    -0.26500
C683        C  0.18685532  0.68790348  0.01390586     0.36200
C684        C  0.17257060  0.72565427  0.01065392    -0.28100
F685        F  0.12527148  0.71861921  0.94002582    -0.20200
H686        H  0.15555322  0.65168164  0.94912400     0.15500
F687        F  0.20613380  0.67851720  0.03887213    -0.23900
H688        H  0.17770413  0.74626512  0.02778443     0.17300
C689        C  0.74191600  0.47904580  0.79899979    -0.28000
C690        C  0.71881842  0.50639999  0.78659555     0.05600
C691        C  0.69613104  0.52594598  0.81103910     0.25200
C692        C  0.69742689  0.51895806  0.84706008    -0.12500
C693        C  0.72138330  0.49242017  0.85944111    -0.26400
C694        C  0.74325132  0.47197775  0.83491087     0.36100
C695        C  0.71918032  0.51423935  0.74805329     0.05600
F696        F  0.67380954  0.55302489  0.79991870    -0.20200
H697        H  0.68007892  0.53505392  0.86516288     0.15500
F698        F  0.76679243  0.44607126  0.84519346    -0.23900
H699        H  0.75927055  0.46324264  0.78063685     0.17300
C700        C  0.75066326  0.52429354  0.72337055     0.25300
C701        C  0.75192903  0.52723439  0.68706115    -0.12400
C702        C  0.72191852  0.51994002  0.67427482    -0.26500
C703        C  0.69002992  0.51120251  0.69909788     0.36200
C704        C  0.68876213  0.50875421  0.73558940    -0.28100
F705        F  0.78044709  0.53069505  0.73442447    -0.20200
H706        H  0.77690507  0.53419000  0.66899737     0.15500
F707        F  0.66032526  0.50345397  0.68844641    -0.23900
H708        H  0.66426494  0.50077986  0.75423232     0.17300
C709        C  0.74507811  0.46059224  0.30430117    -0.28000
C710        C  0.77191712  0.48254753  0.27926036     0.05600
C711        C  0.79742712  0.50263428  0.29120163     0.25200
C712        C  0.79553823  0.50137665  0.32762233    -0.12500
C713        C  0.76802870  0.48037682  0.35272625    -0.26400
C714        C  0.74300530  0.45951674  0.34062221     0.36100
C715        C  0.77212989  0.48553878  0.24089589     0.05600
F716        F  0.82415538  0.52342497  0.26764402    -0.20200
H717        H  0.81507185  0.51778366  0.33615747     0.15500
F718        F  0.71638695  0.43812636  0.36384464    -0.23900
H719        H  0.72509506  0.44503117  0.29567303     0.17300
C720        C  0.77016396  0.45107531  0.22529613     0.25300
C721        C  0.76871162  0.45429149  0.18951062    -0.12400
C722        C  0.76820284  0.49180945  0.16881407    -0.26500
C723        C  0.77029234  0.52635596  0.18434128     0.36200
C724        C  0.77249486  0.52312852  0.22002219    -0.28100
F725        F  0.76943069  0.41425917  0.24469712    -0.20200
H726        H  0.76685948  0.42728518  0.17822376     0.15500
F727        F  0.77054956  0.56315320  0.16502121    -0.23900
H728        H  0.77361515  0.55003270  0.23164861     0.17300
C729        C  0.19296283  0.51422688  0.71645540    -0.28000
C730        C  0.22111678  0.50130136  0.73184661     0.05600
C731        C  0.25276167  0.49403014  0.70923336     0.25200
C732        C  0.25586721  0.49908547  0.67235315    -0.12500
C733        C  0.22761104  0.51153685  0.65687050    -0.26400
C734        C  0.19609879  0.51948018  0.67948764     0.36100
C735        C  0.21760273  0.49562382  0.77126131     0.05600
F736        F  0.28104615  0.48280265  0.72270168    -0.20200
H737        H  0.28051678  0.49284864  0.65588538     0.15500
F738        F  0.16843921  0.53308156  0.66597051    -0.23900
H739        H  0.16829356  0.52000164  0.73314439     0.17300
C740        C  0.20366990  0.52524317  0.79145714     0.25300
C741        C  0.20275270  0.52053445  0.82803754    -0.12400
C742        C  0.21563053  0.48620209  0.84551329    -0.26500
C743        C  0.22819900  0.45583422  0.82541630     0.36200
C744        C  0.22910069  0.46063069  0.78890103    -0.28100
F745        F  0.19244183  0.55966471  0.77558343    -0.20200
H746        H  0.19300963  0.54457122  0.84242126     0.15500
F747        F  0.24028844  0.42162269  0.84071662    -0.23900
H748        H  0.23916775  0.43691782  0.77423377     0.17300
C749        C  0.24620689  0.49193892  0.27990359    -0.28000
C750        C  0.27896981  0.48930882  0.25779369     0.05600
C751        C  0.30830174  0.48418862  0.27320407     0.25200
C752        C  0.30479942  0.48318787  0.30998253    -0.12500
C753        C  0.27187513  0.48616613  0.33223682    -0.26400
C754        C  0.24248666  0.48989603  0.31655585     0.36100
C755        C  0.28182991  0.49350451  0.21872833     0.05600
F756        F  0.34042589  0.48135799  0.25261307    -0.20200
H757        H  0.32792280  0.48023162  0.32100747     0.15500
F758        F  0.20998183  0.49263698  0.33628231    -0.23900
H759        H  0.22324360  0.49564610  0.26863601     0.17300
C760        C  0.29472912  0.46295222  0.19934312     0.25300
C761        C  0.29459667  0.46647830  0.16300685    -0.12400
C762        C  0.28122126  0.50033141  0.14527721    -0.26500
C763        C  0.26872809  0.53111369  0.16492858     0.36200
C764        C  0.26911367  0.52756835  0.20106040    -0.28100
F765        F  0.30570089  0.42880119  0.21593705    -0.20200
H766        H  0.30395101  0.44199621  0.14905045     0.15500
F767        F  0.25542083  0.56450208  0.14963396    -0.23900
H768        H  0.25889788  0.55138814  0.21554134     0.17300
C769        C  0.47213652  0.51584408  0.46520509    -0.28000
C770        C  0.47942891  0.50541751  0.49917756     0.05600
C771        C  0.45169061  0.49521000  0.52843541     0.25200
C772        C  0.41740685  0.49633368  0.52395169    -0.12500
C773        C  0.40980959  0.50738504  0.49016788    -0.26400
C774        C  0.43765464  0.51641032  0.46058681     0.36100
C775        C  0.51586571  0.50289326  0.50401711     0.05600
F776        F  0.45778792  0.48297361  0.56129972    -0.20200
H777        H  0.39665744  0.48822723  0.54716142     0.15500
F778        F  0.43165100  0.52652958  0.42743414    -0.23900
H779        H  0.49320973  0.52361866  0.44223183     0.17300
C780        C  0.53962966  0.47987747  0.48398449     0.25300
C781        C  0.57345421  0.47593374  0.48964125    -0.12400
C782        C  0.58445915  0.49478335  0.51546071    -0.26500
C783        C  0.56047088  0.51744465  0.53590677     0.36200
C784        C  0.52656214  0.52156492  0.53004481    -0.28100
F785        F  0.52982469  0.46026092  0.45956899    -0.20200
H786        H  0.59115063  0.45803193  0.47359882     0.15500
F787        F  0.57000385  0.53662517  0.56071727    -0.23900
H788        H  0.50862819  0.53956368  0.54573499     0.17300
C789        C  0.03829217  0.48862113  0.47745630    -0.28000
C790        C  0.01671875  0.51103040  0.50032584     0.05600
C791        C  0.03173339  0.53136985  0.52272307     0.25200
C792        C  0.06732769  0.52881520  0.52241907    -0.12500
C793        C  0.08890793  0.50651262  0.49945733    -0.26400
C794        C  0.07396647  0.48650651  0.47677659     0.36100
C795        C  0.97856354  0.51180162  0.50157776     0.05600
F796        F  0.01218701  0.55438406  0.54448562    -0.20200
H797        H  0.07811528  0.54486781  0.53988058     0.15500
F798        F  0.09351245  0.46384797  0.45465684    -0.23900
H799        H  0.02739067  0.47187485  0.46055665     0.17300
C800        C  0.96553737  0.51666830  0.47026578     0.25300
C801        C  0.92960930  0.51608471  0.47203635    -0.12400
C802        C  0.90578028  0.51119524  0.50494015    -0.26500
C803        C  0.91883129  0.50620481  0.53625459     0.36200
C804        C  0.95475211  0.50636044  0.53445812    -0.28100
F805        F  0.98744688  0.52284889  0.43786038    -0.20200
H806        H  0.92045117  0.52000855  0.44746514     0.15500
F807        F  0.89703633  0.49997154  0.56871783    -0.23900
H808        H  0.96395604  0.50136658  0.55898420     0.17300
C809        C  0.52070051  0.98696720  0.71072774    -0.28000
C810        C  0.48928825  0.97301746  0.73417919     0.05600
C811        C  0.46120946  0.96192842  0.72016919     0.25200
C812        C  0.46470798  0.96454729  0.68342120    -0.12500
C813        C  0.49594486  0.97921151  0.65986578    -0.26400
C814        C  0.52397859  0.99045802  0.67395795     0.36100
C815        C  0.48613208  0.97077848  0.77305853     0.05600
F816        F  0.43051452  0.94823087  0.74200323    -0.20200
H817        H  0.44260006  0.95590916  0.67334770     0.15500
F818        F  0.55462787  0.00460761  0.65229386    -0.23900
H819        H  0.54259380  0.99595097  0.72095078     0.17300
C820        C  0.51099993  0.95089196  0.78973705     0.25300
C821        C  0.50984699  0.95182582  0.82564552    -0.12400
C822        C  0.48391570  0.97267041  0.84584758    -0.26500
C823        C  0.45796652  0.99091526  0.82954504     0.36200
C824        C  0.45918083  0.98998992  0.79346010    -0.28100
F825        F  0.53659413  0.93070231  0.77119573    -0.20200
H826        H  0.53006335  0.93712041  0.83733421     0.15500
F827        F  0.43152809  0.00971935  0.84835065    -0.23900
H828        H  0.43958570  0.00527477  0.78117906     0.17300
C829        C  0.53626948  0.99040291  0.20589696    -0.28000
C830        C  0.51915097  0.02182936  0.22122097     0.05600
C831        C  0.50624205  0.05250193  0.19972661     0.25200
C832        C  0.50929474  0.05095278  0.16366317    -0.12500
C833        C  0.52559060  0.01895927  0.14810883    -0.26400
C834        C  0.53996538  0.98912750  0.16957720     0.36100
C835        C  0.51458823  0.02243514  0.25968020     0.05600
F836        F  0.48955924  0.08325938  0.21389025    -0.20200
H837        H  0.49817433  0.07463661  0.14807256     0.15500
F838        F  0.55699052  0.95834078  0.15588072    -0.23900
H839        H  0.54679721  0.96681435  0.22216633     0.17300
C840        C  0.49485308  0.99223670  0.28433602     0.25300
C841        C  0.49054804  0.99310138  0.32067118    -0.12400
C842        C  0.50589860  0.02403518  0.33324296    -0.26500
C843        C  0.52564131  0.05443833  0.30823245     0.36200
C844        C  0.52968710  0.05358689  0.27184752    -0.28100
F845        F  0.47913255  0.96232350  0.27325530    -0.20200
H846        H  0.47516214  0.96929361  0.33895344     0.15500
F847        F  0.54109220  0.08503381  0.31865371    -0.23900
H848        H  0.54493565  0.07712740  0.25304321     0.17300
C849        C  0.38451414  0.78435737  0.55034968    -0.28000
C850        C  0.37179393  0.77510251  0.52148079     0.05600
C851        C  0.37827636  0.80193431  0.48952101     0.25200
C852        C  0.39626810  0.83802128  0.48694937    -0.12500
C853        C  0.40842560  0.84802104  0.51607826    -0.26400
C854        C  0.40273720  0.82037355  0.54780256     0.36100
C855        C  0.35103966  0.73800274  0.52478226     0.05600
F856        F  0.36754108  0.79299857  0.46060664    -0.20200
H857        H  0.40051982  0.85819933  0.46204641     0.15500
F858        F  0.41457535  0.82792044  0.57650748    -0.23900
H859        H  0.37975827  0.76396198  0.57516036     0.17300
C860        C  0.36359111  0.70068149  0.53640388     0.25300
C861        C  0.34515126  0.66576960  0.53556250    -0.12400
C862        C  0.31418579  0.66767954  0.52287141    -0.26500
C863        C  0.30050478  0.70521854  0.51366775     0.36200
C864        C  0.31883213  0.73993175  0.51470736    -0.28100
F865        F  0.39465768  0.69788161  0.54641733    -0.20200
H866        H  0.35608985  0.63727769  0.54303876     0.15500
F867        F  0.26979512  0.70854491  0.50291307    -0.23900
H868        H  0.30825957  0.76851262  0.50675342     0.17300
C869        C  0.61067546  0.22855810  0.44663562    -0.28000
C870        C  0.62342249  0.23672265  0.47586116     0.05600
C871        C  0.61648629  0.20931561  0.50741162     0.25200
C872        C  0.59811717  0.17365683  0.50926214    -0.12500
C873        C  0.58590306  0.16464632  0.47980951    -0.26400
C874        C  0.59212284  0.19284706  0.44842010     0.36100
C875        C  0.64411323  0.27365471  0.47362479     0.05600
F876        F  0.62709990  0.21734000  0.53666859    -0.20200
H877        H  0.59350219  0.15308602  0.53395504     0.15500
F878        F  0.58033619  0.18620107  0.41942784    -0.23900
H879        H  0.61555769  0.24964238  0.42223251     0.17300
C880        C  0.67724318  0.27170815  0.48183013     0.25300
C881        C  0.69506108  0.30648855  0.48393239    -0.12400
C882        C  0.68025361  0.34384445  0.47765849    -0.26500
C883        C  0.64796172  0.34591559  0.46722817     0.36200
C884        C  0.63008593  0.31097048  0.46529587    -0.28100
F885        F  0.69201307  0.23600176  0.48853821    -0.20200
H886        H  0.72011954  0.30408926  0.49136396     0.15500
F887        F  0.63260459  0.38136248  0.46104985    -0.23900
H888        H  0.60458770  0.31292978  0.45882499     0.17300
C889        C  0.95841026  0.00813138  0.71583205    -0.28000
C890        C  0.98858950  0.01744732  0.72712814     0.05600
C891        C  0.01886093  0.03075780  0.70152729     0.25200
C892        C  0.01876422  0.03464542  0.66527412    -0.12500
C893        C  0.98857390  0.02507137  0.65374499    -0.26400
C894        C  0.95829893  0.01161514  0.67966420     0.36100
C895        C  0.98857014  0.01204588  0.76559212     0.05600
F896        F  0.04844348  0.04037227  0.71160271    -0.20200
H897        H  0.04248388  0.04498425  0.64622084     0.15500
F898        F  0.92874475  0.00056945  0.67031625    -0.23900
H899        H  0.93501550  0.99720277  0.73515708     0.17300
C900        C  0.96442993  0.03121295  0.78915207     0.25300
C901        C  0.96527077  0.02641575  0.82528352    -0.12400
C902        C  0.98990088  0.00198920  0.83875395    -0.26500
C903        C  0.01339843  0.98192034  0.81503777     0.36200
C904        C  0.01271729  0.98715094  0.77895504    -0.28100
F905        F  0.94067953  0.05547842  0.77703178    -0.20200
H906        H  0.94678775  0.04219636  0.84264272     0.15500
F907        F  0.03766596  0.95780268  0.82631887    -0.23900
H908        H  0.03114733  0.97161086  0.76130713     0.17300
C909        C  0.98194899  0.98391626  0.28898273    -0.28000
C910        C  0.00911772  0.96486522  0.26876252     0.05600
C911        C  0.03429434  0.94587547  0.28593751     0.25200
C912        C  0.03251930  0.94694106  0.32217597    -0.12500
C913        C  0.00532093  0.96622170  0.34217009    -0.26400
C914        C  0.97985141  0.98438791  0.32513817     0.36100
C915        C  0.01171461  0.96730429  0.22965399     0.05600
F916        F  0.06052131  0.92614605  0.26782570    -0.20200
H917        H  0.05243172  0.93268815  0.33464686     0.15500
F918        F  0.95394081  0.00479793  0.34288620    -0.23900
H919        H  0.96279344  0.99985123  0.27649669     0.17300
C920        C  0.98176274  0.96288252  0.21580144     0.25300
C921        C  0.98368566  0.97031399  0.17911086    -0.12400
C922        C  0.01565459  0.98059973  0.15535199    -0.26500
C923        C  0.04589117  0.98295347  0.16888228     0.36200
C924        C  0.04380059  0.97707202  0.20564648    -0.28100
F925        F  0.95063220  0.95098701  0.23770479    -0.20200
H926        H  0.96020376  0.96745475  0.16915865     0.15500
F927        F  0.07722739  0.99264084  0.14657484    -0.23900
H928        H  0.06720731  0.98135222  0.21530458     0.17300
C929        C  0.70016320  0.02883939  0.54033438    -0.28000
C930        C  0.72072103  0.99621604  0.53209349     0.05600
C931        C  0.70429247  0.96169332  0.52630068     0.25200
C932        C  0.66895721  0.96136624  0.52527897    -0.12500
C933        C  0.64880377  0.99493290  0.53108132    -0.26400
C934        C  0.66448977  0.02820129  0.54013486     0.36100
C935        C  0.75934595  0.99908231  0.52745165     0.05600
F936        F  0.72250548  0.92829850  0.52120413    -0.20200
H937        H  0.65745421  0.93486107  0.51934543     0.15500
F938        F  0.64594933  0.06095326  0.54692928    -0.23900
H939        H  0.71202661  0.05557072  0.54543414     0.17300
C940        C  0.78123700  0.98767394  0.49727597     0.25300
C941        C  0.81742333  0.98975533  0.49301646    -0.12400
C942        C  0.83296732  0.00370731  0.51842019    -0.26500
C943        C  0.81104261  0.01687629  0.54795227     0.36200
C944        C  0.77468326  0.01434162  0.55237166    -0.28100
F945        F  0.76769943  0.97520673  0.47133265    -0.20200
H946        H  0.83327570  0.98010118  0.46968731     0.15500
F947        F  0.82448389  0.03190063  0.57281539    -0.23900
H948        H  0.75845975  0.02387248  0.57557587     0.17300
C949        C  0.29414993  0.00597066  0.44141341    -0.28000
C950        C  0.26933144  0.01601681  0.47030310     0.05600
C951        C  0.28069615  0.02335329  0.50066043     0.25200
C952        C  0.31600285  0.02244740  0.50143849    -0.12500
C953        C  0.34108672  0.01335318  0.47239279    -0.26400
C954        C  0.32970852  0.00434672  0.44245512     0.36100
C955        C  0.23162366  0.01796565  0.46929391     0.05600
F956        F  0.25756554  0.03036574  0.53013096    -0.20200
H957        H  0.32366865  0.02847623  0.52529329     0.15500
F958        F  0.35284673  0.99494076  0.41396701    -0.23900
H959        H  0.28601809  0.99983429  0.41783327     0.17300
C960        C  0.21178993  0.05030519  0.48009268     0.25300
C961        C  0.17582491  0.05028085  0.48181774    -0.12400
C962        C  0.15901927  0.01878092  0.47165479    -0.26500
C963        C  0.17895231  0.98705415  0.45982415     0.36200
C964        C  0.21484308  0.98666181  0.45879509    -0.28100
F965        F  0.22725928  0.08226504  0.48849435    -0.20200
H966        H  0.16109258  0.07517917  0.49078559     0.15500
F967        F  0.16345588  0.95547398  0.45090034    -0.23900
H968        H  0.22939695  0.96129544  0.45068323     0.17300
C969        C  0.87511724  0.79524144  0.49430802    -0.28000
C970        C  0.88034728  0.76493174  0.52137264     0.05600
C971        C  0.90670167  0.77054717  0.53966756     0.25200
C972        C  0.92712173  0.80567973  0.53111533    -0.12500
C973        C  0.92124877  0.83671583  0.50485150    -0.26400
C974        C  0.89482430  0.83104230  0.48647683     0.36100
C975        C  0.85833633  0.72768492  0.53009988     0.05600
F976        F  0.91181479  0.74289527  0.56692425    -0.20200
H977        H  0.94688536  0.80896797  0.54616748     0.15500
F978        F  0.88746205  0.86009135  0.46141998    -0.23900
H979        H  0.85548499  0.79133644  0.47924692     0.17300
C980        C  0.82215578  0.72915025  0.53232765     0.25300
C981        C  0.80226449  0.69406023  0.53621464    -0.12400
C982        C  0.81778585  0.65677538  0.53893233    -0.26500
C983        C  0.85350149  0.65505289  0.53916897     0.36200
C984        C  0.87358733  0.69025737  0.53449523    -0.28100
F985        F  0.80605480  0.76455708  0.53025523    -0.20200
H986        H  0.77474183  0.69606208  0.53621401     0.15500
F987        F  0.86957716  0.61961638  0.54094391    -0.23900
H988        H  0.90141377  0.68820878  0.53255824     0.17300
C989        C  0.16225912  0.27981751  0.48138776    -0.28000
C990        C  0.12682290  0.28459389  0.48103099     0.05600
C991        C  0.11436902  0.32336552  0.47513637     0.25200
C992        C  0.13686434  0.35658222  0.47075130    -0.12500
C993        C  0.17199562  0.35176576  0.47259674    -0.26400
C994        C  0.18469641  0.31299385  0.47718991     0.36100
C995        C  0.10320996  0.24889849  0.48730608     0.05600
F996        F  0.08012032  0.32917727  0.47549266    -0.20200
H997        H  0.12636029  0.38611386  0.46775525     0.15500
F998        F  0.21874638  0.30716211  0.47786488    -0.23900
H999        H  0.17251011  0.25022664  0.48522851     0.17300
C1000       C  0.08254695  0.24303811  0.46309885     0.25300
C1001       C  0.06225854  0.20800331  0.46806666    -0.12400
C1002       C  0.06253841  0.17762158  0.49690833    -0.26500
C1003       C  0.08223782  0.18427262  0.52193353     0.36200
C1004       C  0.10240652  0.21951752  0.51699833    -0.28100
F1005       F  0.08359570  0.27004984  0.43344280    -0.20200
H1006       H  0.04755663  0.20398006  0.44821359     0.15500
F1007       F  0.08255811  0.15661715  0.55085208    -0.23900
H1008       H  0.11785732  0.22369956  0.53619891     0.17300
loop_ 
_geom_bond_atom_site_label_1 
_geom_bond_atom_site_label_2 
_geom_bond_distance 
_geom_bond_site_symmetry_2 
_ccdc_geom_bond_type 
Zr1           O2   2.443       .  S
Zr1           O3   2.450       .  S
Zr1           O4   2.454       .  S
Zr1           O7   2.448       .  S
Zr1           O9   2.388   1_655  S
Zr1          O10   2.380       .  S
Zr1          O11   2.412   1_565  S
Zr1          O12   2.403   1_565  S
O2           H58   0.990       .  S
O2           H66   0.990   1_565  S
O3           C23   1.287       .  A
O4           C25   1.287   1_655  A
O5          Zr15   2.421       .  S
O5           C24   1.282       .  A
O6          Zr14   2.444       .  S
O6           C25   1.286       .  A
O7           C24   1.289   1_565  A
O8          Zr16   2.405   1_655  S
O8           C23   1.280       .  A
O9          Zr14   2.402       .  S
O9          Zr16   2.377       .  S
O10         Zr15   2.388   1_565  S
O10         Zr16   2.379   1_655  S
O10          H45   0.967       .  S
O11         Zr14   2.403   1_645  S
O11         Zr31   2.393       .  S
O11          H48   0.964       .  S
O12         Zr15   2.391       .  S
O12         Zr31   2.390       .  S
Zr13         O38   2.442       .  S
Zr13         O32   2.446       .  S
Zr13         O40   2.446       .  S
Zr13         O28   2.442       .  S
Zr13         O19   2.397   1_445  S
Zr13         O20   2.414   1_545  S
Zr13         O21   2.382       .  S
Zr13         O22   2.383   1_455  S
Zr14         O33   2.435   1_565  S
Zr14         O26   2.436       .  S
Zr14         O27   2.443   1_565  S
Zr14         O20   2.402       .  S
Zr14         O21   2.399   1_565  S
Zr15         O17   2.435       .  S
Zr15         O39   2.441   1_545  S
Zr15         O41   2.427       .  S
Zr15         O19   2.387   1_545  S
Zr15         O22   2.393       .  S
Zr16         O42   2.435   1_455  S
Zr16         O43   2.435       .  S
Zr16         O18   2.438       .  S
Zr16         O19   2.391   1_455  S
Zr16         O20   2.389       .  S
O17          H54   0.990       .  S
O18          H49   0.990       .  S
O18          H63   0.990       .  S
O20          H46   0.966       .  S
O21         Zr31   2.380   1_455  S
O22         Zr31   2.384       .  S
O22          H47   0.966       .  S
C23         C973   1.488       .  S
C24         C942   1.492       .  S
C25         C913   1.488       .  S
O26          H62   0.990       .  S
O27          C29   1.287       .  A
O28          C29   1.285       .  A
C29         C962   1.484       .  S
O30         Zr31   2.439       .  S
O30          H59   0.990       .  S
Zr31         O34   2.437   1_655  S
Zr31         O35   2.438       .  S
Zr31         O36   2.413   1_655  S
O32          C37   1.286       .  A
O33          H50   0.990       .  S
O33          H65   0.990       .  S
O34          H51   0.990       .  S
O35          H55   0.990       .  S
O35          H64   0.990       .  S
O36          C37   1.281       .  A
C37        C1002   1.489       .  S
O38          H57   0.991       .  S
O38          H61   0.990       .  S
O39          H53   0.990       .  S
O39          H60   0.990       .  S
O40          C44   1.287   1_455  A
O41          C44   1.284       .  A
O42          H52   0.990       .  S
O43          H56   0.990       .  S
C44         C893   1.492       .  S
Zr67         O68   2.440       .  S
Zr67         O69   2.441       .  S
Zr67         O70   2.448       .  S
Zr67         O73   2.423       .  S
Zr67         O75   2.378   1_545  S
Zr67         O76   2.381       .  S
Zr67         O77   2.402       .  S
Zr67         O78   2.406       .  S
O68         H124   0.990       .  S
O68         H132   0.990       .  S
O69          C89   1.285   1_545  A
O70          C91   1.287   1_545  A
O71         Zr81   2.432       .  S
O71          C90   1.284       .  A
O72         Zr80   2.421       .  S
O72          C91   1.282       .  A
O73          C90   1.284       .  A
O74         Zr82   2.428       .  S
O74          C89   1.284       .  A
O75         Zr80   2.392       .  S
O75         Zr82   2.378       .  S
O76         Zr81   2.386       .  S
O76         Zr82   2.373   1_545  S
O76         H111   0.967       .  S
O77         Zr80   2.396   1_545  S
O77         Zr97   2.394       .  S
O77         H114   0.966       .  S
O78         Zr81   2.389       .  S
O78         Zr97   2.390       .  S
Zr79        O104   2.444       .  S
Zr79         O98   2.460       .  S
Zr79        O106   2.433       .  S
Zr79         O94   2.441       .  S
Zr79         O85   2.408       .  S
Zr79         O86   2.413       .  S
Zr79         O87   2.375       .  S
Zr79         O88   2.388   1_565  S
Zr80         O99   2.437       .  S
Zr80         O92   2.434       .  S
Zr80         O93   2.419       .  S
Zr80         O86   2.398       .  S
Zr80         O87   2.391       .  S
Zr81         O83   2.434       .  S
Zr81        O105   2.439       .  S
Zr81        O107   2.425       .  S
Zr81         O85   2.392   1_545  S
Zr81         O88   2.400       .  S
Zr82        O108   2.436       .  S
Zr82        O109   2.438       .  S
Zr82         O84   2.438       .  S
Zr82         O85   2.395       .  S
Zr82         O86   2.396       .  S
O83         H120   0.990       .  S
O84         H115   0.990       .  S
O84         H129   0.990       .  S
O86         H112   0.965       .  S
O87         Zr97   2.376   1_565  S
O88         Zr97   2.381       .  S
O88         H113   0.966       .  S
C89         C933   1.488       .  S
C90         C873   1.487       .  S
C91         C813   1.484       .  S
O92         H128   0.990       .  S
O93          C95   1.282       .  A
O94          C95   1.285       .  A
C95         C853   1.484       .  S
O96         Zr97   2.438       .  S
O96         H125   0.990       .  S
Zr97        O100   2.435       .  S
Zr97        O101   2.442       .  S
Zr97        O102   2.407       .  S
O98         C103   1.288   1_565  A
O99         H116   0.990       .  S
O99         H131   0.990       .  S
O100        H117   0.990       .  S
O101        H121   0.990       .  S
O101        H130   0.989       .  S
O102        C103   1.280       .  A
C103        C953   1.489       .  S
O104        H123   0.990       .  S
O104        H127   0.991       .  S
O105        H119   0.990       .  S
O105        H126   0.990       .  S
O106        C110   1.286   1_565  A
O107        C110   1.283       .  A
O108        H118   0.990       .  S
O109        H122   0.990       .  S
C110        C842   1.488       .  S
Zr133       O134   2.438       .  S
Zr133       O135   2.437       .  S
Zr133       O136   2.436       .  S
Zr133       O139   2.422       .  S
Zr133       O141   2.380       .  S
Zr133       O142   2.383       .  S
Zr133       O143   2.408       .  S
Zr133       O144   2.400       .  S
O134        H190   0.990       .  S
O134        H198   0.990       .  S
O135        C155   1.285       .  A
O136        C157   1.286       .  A
O137       Zr147   2.440       .  S
O137        C156   1.286       .  A
O138       Zr146   2.456       .  S
O138        C157   1.290       .  A
O139        C156   1.283       .  A
O140       Zr148   2.423       .  S
O140        C155   1.282       .  A
O141       Zr146   2.400       .  S
O141       Zr148   2.374       .  S
O142       Zr147   2.394       .  S
O142       Zr148   2.377       .  S
O142        H177   0.967       .  S
O143       Zr146   2.404       .  S
O143       Zr163   2.387       .  S
O143        H180   0.967       .  S
O144       Zr147   2.391       .  S
O144       Zr163   2.387       .  S
Zr145       O170   2.441       .  S
Zr145       O164   2.434       .  S
Zr145       O172   2.444       .  S
Zr145       O160   2.423       .  S
Zr145       O151   2.392       .  S
Zr145       O152   2.413       .  S
Zr145       O153   2.386       .  S
Zr145       O154   2.379       .  S
Zr146       O165   2.437       .  S
Zr146       O158   2.434       .  S
Zr146       O159   2.455       .  S
Zr146       O152   2.406       .  S
Zr146       O153   2.400       .  S
Zr147       O149   2.436       .  S
Zr147       O171   2.437       .  S
Zr147       O173   2.442       .  S
Zr147       O151   2.393       .  S
Zr147       O154   2.387       .  S
Zr148       O174   2.433       .  S
Zr148       O175   2.434       .  S
Zr148       O150   2.439       .  S
Zr148       O151   2.398       .  S
Zr148       O152   2.387       .  S
O149        H186   0.990       .  S
O150        H181   0.990       .  S
O150        H195   0.990       .  S
O152        H178   0.965       .  S
O153       Zr163   2.382       .  S
O154       Zr163   2.387       .  S
O154        H179   0.965       .  S
C155        C993   1.479       .  S
C156        C793   1.484       .  S
C157        C753   1.497       .  S
O158        H194   0.990       .  S
O159        C161   1.288       .  A
O160        C161   1.282       .  A
C161        C773   1.486       .  S
O162       Zr163   2.440       .  S
O162        H191   0.990       .  S
Zr163       O166   2.438       .  S
Zr163       O167   2.439       .  S
Zr163       O168   2.397       .  S
O164        C169   1.283       .  A
O165        H182   0.990       .  S
O165        H197   0.990       .  S
O166        H183   0.990       .  S
O167        H187   0.990       .  S
O167        H196   0.990       .  S
O168        C169   1.278       .  A
C169        C862   1.474       .  S
O170        H189   0.990       .  S
O170        H193   0.990       .  S
O171        H185   0.990       .  S
O171        H192   0.990       .  S
O172        C176   1.286       .  A
O173        C176   1.286       .  A
O174        H184   0.990       .  S
O175        H188   0.990       .  S
C176        C733   1.496       .  S
Zr199       O200   2.439       .  S
Zr199       O201   2.416       .  S
Zr199       O202   2.425       .  S
Zr199       O205   2.403       .  S
Zr199       O207   2.375       .  S
Zr199       O208   2.383       .  S
Zr199       O209   2.398       .  S
Zr199       O210   2.402       .  S
O200        H256   0.990       .  S
O200        H264   0.990       .  S
O201        C221   1.280       .  A
O202        C223   1.282       .  A
O203       Zr213   2.458       .  S
O203        C222   1.289       .  A
O204       Zr212   2.437       .  S
O204        C223   1.285       .  A
O205        C222   1.280       .  A
O206       Zr214   2.423       .  S
O206        C221   1.282       .  A
O207       Zr212   2.391       .  S
O207       Zr214   2.377       .  S
O208       Zr213   2.396       .  S
O208       Zr214   2.378       .  S
O208        H243   0.967       .  S
O209       Zr212   2.397       .  S
O209       Zr229   2.391       .  S
O209        H246   0.967       .  S
O210       Zr213   2.395       .  S
O210       Zr229   2.395       .  S
Zr211       O236   2.444       .  S
Zr211       O230   2.435       .  S
Zr211       O238   2.423       .  S
Zr211       O226   2.432       .  S
Zr211       O217   2.401       .  S
Zr211       O218   2.401       .  S
Zr211       O219   2.375       .  S
Zr211       O220   2.387       .  S
Zr212       O231   2.439       .  S
Zr212       O224   2.435       .  S
Zr212       O225   2.433       .  S
Zr212       O218   2.394       .  S
Zr212       O219   2.386       .  S
Zr213       O215   2.436       .  S
Zr213       O237   2.439       .  S
Zr213       O239   2.447       .  S
Zr213       O217   2.395       .  S
Zr213       O220   2.396       .  S
Zr214       O240   2.438       .  S
Zr214       O241   2.435       .  S
Zr214       O216   2.437       .  S
Zr214       O217   2.396       .  S
Zr214       O218   2.390       .  S
O215        H252   0.990       .  S
O216        H247   0.990       .  S
O216        H261   0.990       .  S
O218        H244   0.967       .  S
O219       Zr229   2.373       .  S
O220       Zr229   2.378       .  S
O220        H245   0.966       .  S
C221        C882   1.477       .  S
C222        C782   1.486       .  S
C223        C713   1.483       .  S
O224        H260   0.990       .  S
O225        C227   1.285       .  A
O226        C227   1.285       .  A
C227        C802   1.486       .  S
O228       Zr229   2.439       .  S
O228        H257   0.990       .  S
Zr229       O232   2.437       .  S
Zr229       O233   2.439       .  S
Zr229       O234   2.416       .  S
O230        C235   1.285       .  A
O231        H248   0.990       .  S
O231        H263   0.990       .  S
O232        H249   0.990       .  S
O233        H253   0.990       .  S
O233        H262   0.990       .  S
O234        C235   1.282       .  A
C235        C982   1.476       .  S
O236        H255   0.990       .  S
O236        H259   0.990       .  S
O237        H251   0.990       .  S
O237        H258   0.990       .  S
O238        C242   1.285       .  A
O239        C242   1.288       .  A
O240        H250   0.990       .  S
O241        H254   0.990       .  S
C242        C702   1.492       .  S
Zr265       O266   2.441       .  S
Zr265       O267   2.422       .  S
Zr265       O268   2.450       .  S
Zr265       O271   2.433       .  S
Zr265       O273   2.382   1_545  S
Zr265       O274   2.389   1_556  S
Zr265       O275   2.398   1_655  S
Zr265       O276   2.393   1_655  S
O266        H322   0.990       .  S
O266        H330   0.990       .  S
O267        C287   1.282   1_545  A
O268        C289   1.287   1_545  A
O269       Zr279   2.431       .  S
O269        C288   1.285       .  A
O270       Zr278   2.423       .  S
O270        C289   1.283   1_455  A
O271        C288   1.285   1_556  A
O272       Zr280   2.420       .  S
O272        C287   1.282   1_554  A
O273       Zr278   2.395   1_655  S
O273       Zr280   2.377   1_556  S
O274       Zr279   2.390       .  S
O274       Zr280   2.380   1_545  S
O274        H309   0.967       .  S
O275       Zr278   2.404   1_545  S
O275       Zr295   2.389       .  S
O275        H312   0.965       .  S
O276       Zr279   2.393   1_456  S
O276       Zr295   2.379       .  S
Zr277       O302   2.442       .  S
Zr277       O296   2.422       .  S
Zr277       O304   2.439       .  S
Zr277       O292   2.439       .  S
Zr277       O283   2.400   1_455  S
Zr277       O284   2.405       .  S
Zr277       O285   2.374   1_554  S
Zr277       O286   2.385   1_565  S
Zr278       O297   2.435       .  S
Zr278       O290   2.437       .  S
Zr278       O291   2.426       .  S
Zr278       O284   2.399   1_556  S
Zr278       O285   2.385       .  S
Zr279       O281   2.437   1_655  S
Zr279       O303   2.435       .  S
Zr279       O305   2.443       .  S
Zr279       O283   2.390   1_545  S
Zr279       O286   2.394   1_655  S
Zr280       O306   2.437       .  S
Zr280       O307   2.437       .  S
Zr280       O282   2.436   1_554  S
Zr280       O283   2.393       .  S
Zr280       O284   2.390   1_655  S
O281        H318   0.990       .  S
O282        H313   0.990   1_556  S
O282        H327   0.990       .  S
O284        H310   0.965       .  S
O285       Zr295   2.376   1_565  S
O286       Zr295   2.389   1_554  S
O286        H311   0.965       .  S
C287        C613   1.481       .  S
C288        C653   1.478       .  S
C289        C902   1.491   1_565  S
O290        H326   0.990       .  S
O291        C293   1.282       .  A
O292        C293   1.285   1_554  A
C293        C673   1.483       .  S
O294       Zr295   2.439       .  S
O294        H323   0.991       .  S
Zr295       O298   2.439       .  S
Zr295       O299   2.437       .  S
Zr295       O300   2.387       .  S
O296        C301   1.282   1_564  A
O297        H314   0.990       .  S
O297        H329   0.990       .  S
O298        H315   0.990       .  S
O299        H319   0.990   1_556  S
O299        H328   0.990   1_556  S
O300        C301   1.275       .  A
C301        C633   1.463       .  S
O302        H321   0.990       .  S
O302        H325   0.991       .  S
O303        H317   0.990       .  S
O303        H324   0.990       .  S
O304        C308   1.284       .  A
O305        C308   1.285   1_645  A
O306        H316   0.990       .  S
O307        H320   0.990       .  S
C308        C922   1.480       .  S
Zr331       O332   2.437       .  S
Zr331       O333   2.405       .  S
Zr331       O334   2.456       .  S
Zr331       O337   2.441       .  S
Zr331       O339   2.385   1_545  S
Zr331       O340   2.386   1_556  S
Zr331       O341   2.395       .  S
Zr331       O342   2.399       .  S
O332        H388   0.990       .  S
O332        H396   0.990       .  S
O333        C353   1.280   1_545  A
O334        C355   1.289   1_545  A
O335       Zr345   2.417       .  S
O335        C354   1.283   1_554  A
O336       Zr344   2.418       .  S
O336        C355   1.282       .  A
O337        C354   1.287       .  A
O338       Zr346   2.421       .  S
O338        C353   1.282   1_554  A
O339       Zr344   2.382       .  S
O339       Zr346   2.377   1_556  S
O340       Zr345   2.380       .  S
O340       Zr346   2.370   1_545  S
O340        H375   0.965       .  S
O341       Zr344   2.400   1_545  S
O341       Zr361   2.388       .  S
O341        H378   0.965       .  S
O342       Zr345   2.390   1_556  S
O342       Zr361   2.387       .  S
Zr343       O368   2.439       .  S
Zr343       O362   2.436       .  S
Zr343       O370   2.444       .  S
Zr343       O358   2.434       .  S
Zr343       O349   2.401       .  S
Zr343       O350   2.411       .  S
Zr343       O351   2.376   1_554  S
Zr343       O352   2.381   1_565  S
Zr344       O363   2.439       .  S
Zr344       O356   2.435       .  S
Zr344       O357   2.416       .  S
Zr344       O350   2.393   1_556  S
Zr344       O351   2.388       .  S
Zr345       O347   2.436       .  S
Zr345       O369   2.438       .  S
Zr345       O371   2.413       .  S
Zr345       O349   2.389   1_545  S
Zr345       O352   2.390       .  S
Zr346       O372   2.435       .  S
Zr346       O373   2.436       .  S
Zr346       O348   2.438       .  S
Zr346       O349   2.396       .  S
Zr346       O350   2.390       .  S
O347        H384   0.990       .  S
O348        H379   0.991       .  S
O348        H393   0.990   1_554  S
O350        H376   0.965       .  S
O351       Zr361   2.376   1_565  S
O352       Zr361   2.381   1_554  S
O352        H377   0.965       .  S
C353        C642   1.468       .  S
C354        C573   1.485       .  S
C355        C822   1.488       .  S
O356        H392   0.990       .  S
O357        C359   1.282   1_556  A
O358        C359   1.284       .  A
C359        C593   1.474       .  S
O360       Zr361   2.437       .  S
O360        H389   0.990       .  S
Zr361       O364   2.435       .  S
Zr361       O365   2.441       .  S
Zr361       O366   2.397       .  S
O362        C367   1.285   1_564  A
O363        H380   0.990       .  S
O363        H395   0.990       .  S
O364        H381   0.990       .  S
O365        H385   0.990       .  S
O365        H394   0.990       .  S
O366        C367   1.278       .  A
C367        C622   1.475   1_545  S
O368        H387   0.990       .  S
O368        H391   0.990       .  S
O369        H383   0.990       .  S
O369        H390   0.990       .  S
O370        C374   1.286   1_565  A
O371        C374   1.281       .  A
O372        H382   0.990       .  S
O373        H386   0.990       .  S
C374        C833   1.488       .  S
Zr397       O398   2.439       .  S
Zr397       O399   2.440       .  S
Zr397       O400   2.461       .  S
Zr397       O403   2.431       .  S
Zr397       O405   2.385       .  S
Zr397       O406   2.382   1_556  S
Zr397       O407   2.404       .  S
Zr397       O408   2.407       .  S
O398        H454   0.990       .  S
O398        H462   0.990       .  S
O399        C419   1.285   1_556  A
O400        C421   1.289       .  A
O401       Zr411   2.426       .  S
O401        C420   1.284   1_554  A
O402       Zr410   2.436       .  S
O402        C421   1.285       .  A
O403        C420   1.284       .  A
O404       Zr412   2.397       .  S
O404        C419   1.278       .  A
O405       Zr410   2.394       .  S
O405       Zr412   2.389   1_556  S
O406       Zr411   2.388       .  S
O406       Zr412   2.379       .  S
O406        H441   0.965       .  S
O407       Zr410   2.398       .  S
O407       Zr427   2.390       .  S
O407        H444   0.966       .  S
O408       Zr411   2.391   1_556  S
O408       Zr427   2.393       .  S
Zr409       O434   2.440       .  S
Zr409       O428   2.418       .  S
Zr409       O436   2.454       .  S
Zr409       O424   2.431       .  S
Zr409       O415   2.388       .  S
Zr409       O416   2.409       .  S
Zr409       O417   2.379   1_554  S
Zr409       O418   2.384       .  S
Zr410       O429   2.438       .  S
Zr410       O422   2.437       .  S
Zr410       O423   2.419       .  S
Zr410       O416   2.407   1_556  S
Zr410       O417   2.392       .  S
Zr411       O413   2.434       .  S
Zr411       O435   2.436       .  S
Zr411       O437   2.430       .  S
Zr411       O415   2.385       .  S
Zr411       O418   2.394       .  S
Zr412       O438   2.440       .  S
Zr412       O439   2.437       .  S
Zr412       O414   2.438       .  S
Zr412       O415   2.379       .  S
Zr412       O416   2.391       .  S
O413        H450   0.990       .  S
O414        H445   0.990       .  S
O414        H459   0.990       .  S
O416        H442   0.967       .  S
O417       Zr427   2.372       .  S
O418       Zr427   2.382   1_554  S
O418        H443   0.965       .  S
C419        C553   1.479       .  S
C420        C682   1.489       .  S
C421        C742   1.499       .  S
O422        H458   0.990       .  S
O423        C425   1.282       .  A
O424        C425   1.283   1_554  A
C425        C582   1.472       .  S
O426       Zr427   2.438       .  S
O426        H455   0.990       .  S
Zr427       O430   2.438       .  S
Zr427       O431   2.438       .  S
Zr427       O432   2.419       .  S
O428        C433   1.282   1_554  A
O429        H446   0.990       .  S
O429        H461   0.990       .  S
O430        H447   0.990       .  S
O431        H451   0.990       .  S
O431        H460   0.990       .  S
O432        C433   1.281       .  A
C433        C533   1.470       .  S
O434        H453   0.990       .  S
O434        H457   0.990       .  S
O435        H449   0.990       .  S
O435        H456   0.990       .  S
O436        C440   1.289       .  A
O437        C440   1.285       .  A
O438        H448   0.990       .  S
O439        H452   0.990       .  S
C440        C762   1.498       .  S
Zr463       O464   2.444       .  S
Zr463       O465   2.430       .  S
Zr463       O466   2.427       .  S
Zr463       O469   2.420       .  S
Zr463       O471   2.378       .  S
Zr463       O472   2.385   1_556  S
Zr463       O473   2.402       .  S
Zr463       O474   2.401   1_556  S
O464        H520   0.990       .  S
O464        H528   0.991       .  S
O465        C485   1.284       .  A
O466        C487   1.282       .  A
O467       Zr477   2.438       .  S
O467        C486   1.287       .  A
O468       Zr476   2.445       .  S
O468        C487   1.286       .  A
O469        C486   1.283   1_556  A
O470       Zr478   2.409       .  S
O470        C485   1.279   1_554  A
O471       Zr476   2.384       .  S
O471       Zr478   2.378   1_556  S
O472       Zr477   2.390       .  S
O472       Zr478   2.381       .  S
O472        H507   0.966       .  S
O473       Zr476   2.400       .  S
O473       Zr493   2.394       .  S
O473        H510   0.967       .  S
O474       Zr477   2.392       .  S
O474       Zr493   2.391   1_554  S
Zr475       O500   2.447       .  S
Zr475       O494   2.423       .  S
Zr475       O502   2.435       .  S
Zr475       O490   2.427       .  S
Zr475       O481   2.399       .  S
Zr475       O482   2.402       .  S
Zr475       O483   2.378   1_554  S
Zr475       O484   2.383       .  S
Zr476       O495   2.437       .  S
Zr476       O488   2.436       .  S
Zr476       O489   2.432       .  S
Zr476       O482   2.401   1_556  S
Zr476       O483   2.392       .  S
Zr477       O479   2.436       .  S
Zr477       O501   2.437       .  S
Zr477       O503   2.432       .  S
Zr477       O481   2.395       .  S
Zr477       O484   2.395       .  S
Zr478       O504   2.435       .  S
Zr478       O505   2.434       .  S
Zr478       O480   2.439       .  S
Zr478       O481   2.395       .  S
Zr478       O482   2.391       .  S
O479        H516   0.990       .  S
O480        H511   0.990       .  S
O480        H525   0.990       .  S
O482        H508   0.967       .  S
O483       Zr493   2.370       .  S
O484       Zr493   2.374   1_554  S
O484        H509   0.966       .  S
C485        C542   1.476       .  S
C486        C602   1.486       .  S
C487        C693   1.490       .  S
O488        H524   0.990       .  S
O489        C491   1.286   1_556  A
O490        C491   1.284       .  A
C491        C662   1.488       .  S
O492       Zr493   2.437       .  S
O492        H521   0.990       .  S
Zr493       O496   2.435       .  S
Zr493       O497   2.440   1_556  S
Zr493       O498   2.416   1_556  S
O494        C499   1.282       .  A
O495        H512   0.990       .  S
O495        H527   0.990       .  S
O496        H513   0.990       .  S
O497        H517   0.990       .  S
O497        H526   0.990       .  S
O498        C499   1.281       .  A
C499        C562   1.474       .  S
O500        H519   0.990       .  S
O500        H523   0.990       .  S
O501        H515   0.990       .  S
O501        H522   0.990       .  S
O502        C506   1.285       .  A
O503        C506   1.284       .  A
O504        H514   0.990       .  S
O505        H518   0.990       .  S
C506        C722   1.479       .  S
C529        C530   1.405       .  A
C529        C534   1.395       .  A
C529        H539   1.083       .  S
C530        C535   1.476       .  S
C530        C531   1.406       .  A
C531        C532   1.394       .  A
C531        F536   1.358       .  S
C532        C533   1.404       .  A
C532        H537   1.083       .  S
C533        C534   1.405       .  A
C534        F538   1.357       .  S
C535        C540   1.406       .  A
C535        C544   1.402   1_556  A
C540        C541   1.397       .  A
C540        F545   1.357       .  S
C541        C542   1.405       .  A
C541        H546   1.083       .  S
C542        C543   1.409   1_556  A
C543        C544   1.392       .  A
C543        F547   1.358       .  S
C544        H548   1.083       .  S
C549        C550   1.405   1_556  A
C549        C554   1.397       .  A
C549        H559   1.083       .  S
C550        C555   1.478   1_455  S
C550        C551   1.403       .  A
C551        C552   1.392       .  A
C551        F556   1.358       .  S
C552        C553   1.409       .  A
C552        H557   1.083       .  S
C553        C554   1.407   1_554  A
C554        F558   1.357       .  S
C555        C560   1.405       .  A
C555        C564   1.405       .  A
C560        C561   1.393       .  A
C560        F565   1.358       .  S
C561        C562   1.404       .  A
C561        H566   1.083       .  S
C562        C563   1.407       .  A
C563        C564   1.397       .  A
C563        F567   1.358       .  S
C564        H568   1.083       .  S
C569        C570   1.403       .  A
C569        C574   1.399       .  A
C569        H579   1.083       .  S
C570        C575   1.477       .  S
C570        C571   1.404   1_556  A
C571        C572   1.395       .  A
C571        F576   1.358       .  S
C572        C573   1.409   1_554  A
C572        H577   1.083       .  S
C573        C574   1.410       .  A
C574        F578   1.357       .  S
C575        C580   1.406       .  A
C575        C584   1.403       .  A
C580        C581   1.395       .  A
C580        F585   1.358   1_556  S
C581        C582   1.404       .  A
C581        H586   1.083   1_556  S
C582        C583   1.407       .  A
C583        C584   1.397       .  A
C583        F587   1.357       .  S
C584        H588   1.083       .  S
C589        C590   1.404       .  A
C589        C594   1.397       .  A
C589        H599   1.083       .  S
C590        C595   1.482       .  S
C590        C591   1.408   1_554  A
C591        C592   1.396       .  A
C591        F596   1.357       .  S
C592        C593   1.404   1_556  A
C592        H597   1.084       .  S
C593        C594   1.407       .  A
C594        F598   1.358       .  S
C595        C600   1.407       .  A
C595        C604   1.402   1_554  A
C600        C601   1.399       .  A
C600        F605   1.358       .  S
C601        C602   1.407       .  A
C601        H606   1.083       .  S
C602        C603   1.411   1_554  A
C603        C604   1.396       .  A
C603        F607   1.358       .  S
C604        H608   1.083       .  S
C609        C610   1.402   1_545  A
C609        C614   1.394       .  A
C609        H619   1.084       .  S
C610        C615   1.476       .  S
C610        C611   1.404   1_556  A
C611        C612   1.396       .  A
C611        F616   1.358       .  S
C612        C613   1.408   1_554  A
C612        H617   1.083       .  S
C613        C614   1.411   1_565  A
C614        F618   1.358       .  S
C615        C620   1.406   1_556  A
C615        C624   1.402   1_565  A
C620        C621   1.395       .  A
C620        F625   1.357       .  S
C621        C622   1.404   1_554  A
C621        H626   1.083       .  S
C622        C623   1.411   1_565  A
C623        C624   1.393       .  A
C623        F627   1.358       .  S
C624        H628   1.084       .  S
C629        C630   1.401   1_545  A
C629        C634   1.388       .  A
C629        H639   1.084       .  S
C630        C635   1.467       .  S
C630        C631   1.405   1_556  A
C631        C632   1.391       .  A
C631        F636   1.357       .  S
C632        C633   1.401   1_564  A
C632        H637   1.083       .  S
C633        C634   1.408       .  A
C634        F638   1.358       .  S
C635        C640   1.404   1_556  A
C635        C644   1.401   1_565  A
C640        C641   1.393   1_554  A
C640        F645   1.358       .  S
C641        C642   1.405       .  A
C641        H646   1.083   1_556  S
C642        C643   1.408   1_565  A
C643        C644   1.388       .  A
C643        F647   1.358       .  S
C644        H648   1.084       .  S
C649        C650   1.406   1_556  A
C649        C654   1.399       .  A
C649        H659   1.083       .  S
C650        C655   1.487       .  S
C650        C651   1.408       .  A
C651        C652   1.398       .  A
C651        F656   1.357       .  S
C652        C653   1.404       .  A
C652        H657   1.083       .  S
C653        C654   1.407   1_554  A
C654        F658   1.357       .  S
C655        C660   1.407       .  A
C655        C664   1.404   1_554  A
C660        C661   1.398       .  A
C660        F665   1.357       .  S
C661        C662   1.409       .  A
C661        H666   1.083       .  S
C662        C663   1.410   1_554  A
C663        C664   1.397       .  A
C663        F667   1.357       .  S
C664        H668   1.083       .  S
C669        C670   1.407       .  A
C669        C674   1.402       .  A
C669        H679   1.083       .  S
C670        C675   1.487       .  S
C670        C671   1.406   1_556  A
C671        C672   1.394       .  A
C671        F676   1.357       .  S
C672        C673   1.404   1_554  A
C672        H677   1.083       .  S
C673        C674   1.410       .  A
C674        F678   1.358       .  S
C675        C680   1.406       .  A
C675        C684   1.405   1_556  A
C680        C681   1.398       .  A
C680        F685   1.357       .  S
C681        C682   1.409       .  A
C681        H686   1.083       .  S
C682        C683   1.411   1_556  A
C683        C684   1.398       .  A
C683        F687   1.357       .  S
C684        H688   1.083       .  S
C689        C690   1.404       .  A
C689        C694   1.397       .  A
C689        H699   1.083       .  S
C690        C695   1.484       .  S
C690        C691   1.405       .  A
C691        C692   1.401       .  A
C691        F696   1.358       .  S
C692        C693   1.412       .  A
C692        H697   1.083       .  S
C693        C694   1.409       .  A
C694        F698   1.357       .  S
C695        C700   1.404       .  A
C695        C704   1.404       .  A
C700        C701   1.395       .  A
C700        F705   1.358       .  S
C701        C702   1.409       .  A
C701        H706   1.083       .  S
C702        C703   1.413       .  A
C703        C704   1.403       .  A
C703        F707   1.357       .  S
C704        H708   1.083       .  S
C709        C710   1.403       .  A
C709        C714   1.397       .  A
C709        H719   1.083       .  S
C710        C715   1.483       .  S
C710        C711   1.407       .  A
C711        C712   1.401       .  A
C711        F716   1.357       .  S
C712        C713   1.406       .  A
C712        H717   1.083       .  S
C713        C714   1.410       .  A
C714        F718   1.358       .  S
C715        C720   1.406       .  A
C715        C724   1.405       .  A
C720        C721   1.397       .  A
C720        F725   1.357       .  S
C721        C722   1.404       .  A
C721        H726   1.083       .  S
C722        C723   1.408       .  A
C723        C724   1.401       .  A
C723        F727   1.357       .  S
C724        H728   1.083       .  S
C729        C730   1.407       .  A
C729        C734   1.405       .  A
C729        H739   1.083       .  S
C730        C735   1.497       .  S
C730        C731   1.409       .  A
C731        C732   1.402       .  A
C731        F736   1.358       .  S
C732        C733   1.408       .  A
C732        H737   1.083       .  S
C733        C734   1.412       .  A
C734        F738   1.357       .  S
C735        C740   1.409       .  A
C735        C744   1.405       .  A
C740        C741   1.404       .  A
C740        F745   1.357       .  S
C741        C742   1.409       .  A
C741        H746   1.083       .  S
C742        C743   1.414       .  A
C743        C744   1.402       .  A
C743        F747   1.357       .  S
C744        H748   1.083       .  S
C749        C750   1.401       .  A
C749        C754   1.397       .  A
C749        H759   1.084       .  S
C750        C755   1.489       .  S
C750        C751   1.408       .  A
C751        C752   1.407       .  A
C751        F756   1.357       .  S
C752        C753   1.410       .  A
C752        H757   1.083       .  S
C753        C754   1.414       .  A
C754        F758   1.355       .  S
C755        C760   1.406       .  A
C755        C764   1.403       .  A
C760        C761   1.405       .  A
C760        F765   1.357       .  S
C761        C762   1.411       .  A
C761        H766   1.083       .  S
C762        C763   1.414       .  A
C763        C764   1.400       .  A
C763        F767   1.358       .  S
C764        H768   1.084       .  S
C769        C770   1.408       .  A
C769        C774   1.404       .  A
C769        H779   1.083       .  S
C770        C775   1.484       .  S
C770        C771   1.402       .  A
C771        C772   1.394       .  A
C771        F776   1.358       .  S
C772        C773   1.409       .  A
C772        H777   1.083       .  S
C773        C774   1.408       .  A
C774        F778   1.357       .  S
C775        C780   1.402       .  A
C775        C784   1.408       .  A
C780        C781   1.396       .  A
C780        F785   1.358       .  S
C781        C782   1.410       .  A
C781        H786   1.083       .  S
C782        C783   1.407       .  A
C783        C784   1.402       .  A
C783        F787   1.357       .  S
C784        H788   1.083       .  S
C789        C790   1.405       .  A
C789        C794   1.398       .  A
C789        H799   1.083       .  S
C790        C795   1.490   1_455  S
C790        C791   1.409       .  A
C791        C792   1.399       .  A
C791        F796   1.357       .  S
C792        C793   1.405       .  A
C792        H797   1.083       .  S
C793        C794   1.410       .  A
C794        F798   1.358       .  S
C795        C800   1.409       .  A
C795        C804   1.405       .  A
C800        C801   1.399       .  A
C800        F805   1.357       .  S
C801        C802   1.407       .  A
C801        H806   1.083       .  S
C802        C803   1.409       .  A
C803        C804   1.398       .  A
C803        F807   1.357       .  S
C804        H808   1.083       .  S
C809        C810   1.406       .  A
C809        C814   1.399       .  A
C809        H819   1.083       .  S
C810        C815   1.485       .  S
C810        C811   1.405       .  A
C811        C812   1.400       .  A
C811        F816   1.357       .  S
C812        C813   1.409       .  A
C812        H817   1.083       .  S
C813        C814   1.407       .  A
C814        F818   1.357   1_565  S
C815        C820   1.404       .  A
C815        C824   1.406       .  A
C820        C821   1.397       .  A
C820        F825   1.358       .  S
C821        C822   1.409       .  A
C821        H826   1.083       .  S
C822        C823   1.408       .  A
C823        C824   1.403       .  A
C823        F827   1.357   1_565  S
C824        H828   1.083   1_565  S
C829        C830   1.403   1_565  A
C829        C834   1.400       .  A
C829        H839   1.083       .  S
C830        C835   1.476       .  S
C830        C831   1.401       .  A
C831        C832   1.395       .  A
C831        F836   1.358       .  S
C832        C833   1.410       .  A
C832        H837   1.083       .  S
C833        C834   1.411   1_545  A
C834        F838   1.356       .  S
C835        C840   1.402   1_545  A
C835        C844   1.401       .  A
C840        C841   1.396       .  A
C840        F845   1.358       .  S
C841        C842   1.409   1_565  A
C841        H846   1.083       .  S
C842        C843   1.413       .  A
C843        C844   1.399       .  A
C843        F847   1.357       .  S
C844        H848   1.083       .  S
C849        C850   1.400       .  A
C849        C854   1.396       .  A
C849        H859   1.083       .  S
C850        C855   1.474       .  S
C850        C851   1.405       .  A
C851        C852   1.394       .  A
C851        F856   1.358       .  S
C852        C853   1.407       .  A
C852        H857   1.083       .  S
C853        C854   1.413       .  A
C854        F858   1.357       .  S
C855        C860   1.406       .  A
C855        C864   1.401       .  A
C860        C861   1.397       .  A
C860        F865   1.357       .  S
C861        C862   1.405       .  A
C861        H866   1.083       .  S
C862        C863   1.409       .  A
C863        C864   1.391       .  A
C863        F867   1.358       .  S
C864        H868   1.084       .  S
C869        C870   1.401       .  A
C869        C874   1.399       .  A
C869        H879   1.083       .  S
C870        C875   1.475       .  S
C870        C871   1.403       .  A
C871        C872   1.394       .  A
C871        F876   1.358       .  S
C872        C873   1.408       .  A
C872        H877   1.083       .  S
C873        C874   1.413       .  A
C874        F878   1.357       .  S
C875        C880   1.404       .  A
C875        C884   1.402       .  A
C880        C881   1.394       .  A
C880        F885   1.358       .  S
C881        C882   1.405       .  A
C881        H886   1.083       .  S
C882        C883   1.411       .  A
C883        C884   1.398       .  A
C883        F887   1.358       .  S
C884        H888   1.083       .  S
C889        C890   1.401       .  A
C889        C894   1.399       .  A
C889        H899   1.083   1_545  S
C890        C895   1.484       .  S
C890        C891   1.406   1_655  A
C891        C892   1.401       .  A
C891        F896   1.358       .  S
C892        C893   1.409   1_455  A
C892        H897   1.083       .  S
C893        C894   1.414       .  A
C894        F898   1.357       .  S
C895        C900   1.406       .  A
C895        C904   1.401   1_645  A
C900        C901   1.402       .  A
C900        F905   1.357       .  S
C901        C902   1.409       .  A
C901        H906   1.083       .  S
C902        C903   1.414   1_645  A
C903        C904   1.398       .  A
C903        F907   1.357       .  S
C904        H908   1.083       .  S
C909        C910   1.406   1_655  A
C909        C914   1.398       .  A
C909        H919   1.083       .  S
C910        C915   1.497       .  S
C910        C911   1.412       .  A
C911        C912   1.406       .  A
C911        F916   1.357       .  S
C912        C913   1.406       .  A
C912        H917   1.083       .  S
C913        C914   1.408   1_455  A
C914        F918   1.357   1_565  S
C915        C920   1.412   1_455  A
C915        C924   1.408       .  A
C920        C921   1.401       .  A
C920        F925   1.358       .  S
C921        C922   1.403   1_655  A
C921        H926   1.084       .  S
C922        C923   1.405       .  A
C923        C924   1.403       .  A
C923        F927   1.357       .  S
C924        H928   1.082       .  S
C929        C930   1.406   1_545  A
C929        C934   1.403       .  A
C929        H939   1.083       .  S
C930        C935   1.491       .  S
C930        C931   1.408       .  A
C931        C932   1.397       .  A
C931        F936   1.358       .  S
C932        C933   1.406       .  A
C932        H937   1.083       .  S
C933        C934   1.411   1_565  A
C934        F938   1.357       .  S
C935        C940   1.408       .  A
C935        C944   1.405   1_565  A
C940        C941   1.397       .  A
C940        F945   1.357       .  S
C941        C942   1.405   1_565  A
C941        H946   1.083       .  S
C942        C943   1.415       .  A
C943        C944   1.403       .  A
C943        F947   1.358       .  S
C944        H948   1.083       .  S
C949        C950   1.409       .  A
C949        C954   1.407       .  A
C949        H959   1.083   1_545  S
C950        C955   1.492       .  S
C950        C951   1.405       .  A
C951        C952   1.394       .  A
C951        F956   1.358       .  S
C952        C953   1.408       .  A
C952        H957   1.083       .  S
C953        C954   1.409       .  A
C954        F958   1.357   1_545  S
C955        C960   1.410       .  A
C955        C964   1.405   1_545  A
C960        C961   1.400       .  A
C960        F965   1.358       .  S
C961        C962   1.405       .  A
C961        H966   1.084       .  S
C962        C963   1.408   1_545  A
C963        C964   1.402       .  A
C963        F967   1.357       .  S
C964        H968   1.083       .  S
C969        C970   1.408       .  A
C969        C974   1.399       .  A
C969        H979   1.083       .  S
C970        C975   1.486       .  S
C970        C971   1.404       .  A
C971        C972   1.394       .  A
C971        F976   1.358       .  S
C972        C973   1.410       .  A
C972        H977   1.083       .  S
C973        C974   1.409       .  A
C974        F978   1.357       .  S
C975        C980   1.407       .  A
C975        C984   1.407       .  A
C980        C981   1.396       .  A
C980        F985   1.358       .  S
C981        C982   1.404       .  A
C981        H986   1.083       .  S
C982        C983   1.406       .  A
C983        C984   1.399       .  A
C983        F987   1.358       .  S
C984        H988   1.083       .  S
C989        C990   1.404       .  A
C989        C994   1.398       .  A
C989        H999   1.083       .  S
C990        C995   1.484       .  S
C990        C991   1.407       .  A
C991        C992   1.400       .  A
C991        F996   1.357       .  S
C992        C993   1.406       .  A
C992        H997   1.083       .  S
C993        C994   1.407       .  A
C994        F998   1.358       .  S
C995       C1000   1.404       .  A
C995       C1004   1.406       .  A
C1000      C1001   1.397       .  A
C1000      F1005   1.357       .  S
C1001      C1002   1.410       .  A
C1001      H1006   1.083       .  S
C1002      C1003   1.410       .  A
C1003      C1004   1.401       .  A
C1003      F1007   1.357       .  S
C1004      H1008   1.083       .  S
