geometry optimzed in LAMMPS
_audit_creation_date              2020-12-01 
_audit_creation_method            'lammps2cif' 
_symmetry_space_group_name_H-M    'P1' 
_symmetry_Int_Tables_number       1 
_symmetry_cell_setting            triclinic 
loop_ 
_symmetry_equiv_pos_as_xyz 
  x,y,z 
_cell_length_a                    21.25841452 
_cell_length_b                    49.53774699319236 
_cell_length_c                    33.55389768919872 
_cell_angle_alpha                 89.57647466486452 
_cell_angle_beta                  89.70369606889311 
_cell_angle_gamma                 89.58532492312337 
loop_ 
_atom_site_label 
_atom_site_type_symbol 
_atom_site_fract_x 
_atom_site_fract_y 
_atom_site_fract_z 
_atom_site_charge 
C1          C  0.99213118  0.91282281  0.05267085     0.88700
C2          C  0.42974061  0.91373717  0.07040811    -0.51500
C3          C  0.40775721  0.93751152  0.08585793     0.11600
C4          C  0.95348587  0.95882725  0.07967915     0.22600
C5          C  0.98143138  0.93397433  0.01980975    -0.52300
C6          C  0.96112565  0.95832848  0.03390663     0.11700
C7          C  0.03885544  0.92566641  0.08175190    -0.51800
C8          C  0.01826919  0.94989860  0.09629894     0.12300
H9          H  0.40688259  0.89442529  0.07432584     0.16800
H10         H  0.93683315  0.97864499  0.09109961     0.02600
H11         H  0.98902483  0.92975137  0.98850011     0.17100
H12         H  0.08428196  0.91680818  0.08872938     0.16900
C13         C  0.17705271  0.90224477  0.19080513     0.88700
C14         C  0.23178028  0.89806571  0.16187756    -0.51500
C15         C  0.25483084  0.92113581  0.14555802     0.11600
C16         C  0.21915160  0.94663864  0.15932604     0.22600
C17         C  0.20092134  0.92252345  0.22169616    -0.52300
C18         C  0.22230716  0.94609012  0.20518230     0.11700
C19         C  0.12663194  0.91801566  0.16687714    -0.51800
C20         C  0.14877086  0.94166890  0.15045664     0.12300
H21         H  0.25191458  0.87829618  0.15554544     0.16800
H22         H  0.23682633  0.96566867  0.14580095     0.02600
H23         H  0.19932134  0.91869303  0.25355631     0.17100
H24         H  0.07709267  0.91284152  0.16749782     0.16900
O25         O  0.39998935  0.71011996  0.22350355    -0.55600
C26         C  0.28813830  0.71165420  0.14700765     0.77000
O27         O  0.29035833  0.69271130  0.28318141    -0.56800
C28         C  0.42538485  0.73304111  0.22382995     0.77000
C29         C  0.22297932  0.77709933  0.23795538     0.79400
Cd30       Cd  0.29291758  0.72724166  0.22863163     1.37500
O31         O  0.30422972  0.73514405  0.15675307    -0.55600
O32         O  0.25926701  0.76875244  0.26540985    -0.54400
C33         C  0.23772328  0.68340413  0.27237336     0.79400
O34         O  0.21617348  0.76182428  0.20833099    -0.56800
O35         O  0.27544917  0.69522757  0.17471496    -0.55200
O36         O  0.39173258  0.75283754  0.23468255    -0.55200
O37         O  0.20823377  0.69645043  0.24587832    -0.54400
O38         O  0.16223006  0.72700368  0.04052748    -0.55600
C39         C  0.53583655  0.73748943  0.13410341     0.77000
O40         O  0.50750521  0.77852783  0.05048324    -0.56800
C41         C  0.17486520  0.71054336  0.06842151     0.77000
C42         C  0.51441257  0.68770037  0.01652894     0.79400
Cd43       Cd  0.56474516  0.73597362  0.05011050     1.37500
O44         O  0.59247044  0.73689201  0.12257934    -0.55600
O45         O  0.55951879  0.69966989  0.99944519    -0.54400
C46         C  0.03623742  0.78361785  0.02795193     0.79400
O47         O  0.48899303  0.69939291  0.04576183    -0.56800
O48         O  0.49406432  0.73721193  0.10745006    -0.55200
O49         O  0.13002457  0.70215683  0.08995247    -0.55200
O50         O  0.56355346  0.77175704  0.99773021    -0.54400
C51         C  0.46680575  0.56227825  0.05627395     0.88700
C52         C  0.01079414  0.55714409  0.08120322    -0.51500
C53         C  0.00783166  0.53388922  0.10336435     0.11600
C54         C  0.45570838  0.51743295  0.09644545     0.22600
C55         C  0.46946606  0.53738874  0.03015735    -0.52300
C56         C  0.46282450  0.51361025  0.05073772     0.11700
C57         C  0.40488730  0.56014546  0.07945892    -0.51800
C58         C  0.39892680  0.53674535  0.10111973     0.12300
H59         H  0.04704942  0.57219338  0.08519828     0.16800
H60         H  0.45106092  0.49831865  0.11370372     0.02600
H61         H  0.47704585  0.53877412  0.99820465     0.17100
H62         H  0.36922956  0.57593617  0.07871432     0.16900
C63         C  0.19267643  0.56305112  0.22917662     0.88700
C64         C  0.13797614  0.55784718  0.20062187    -0.51500
C65         C  0.15002296  0.53780133  0.17368272     0.11600
C66         C  0.21569522  0.52454879  0.17864267     0.22600
C67         C  0.20635175  0.53588045  0.24930555    -0.52300
C68         C  0.21862758  0.51543371  0.22295655     0.11700
C69         C  0.24934952  0.56831352  0.20205386    -0.51800
C70         C  0.26203092  0.54827792  0.17563088     0.12300
H71         H  0.09596476  0.57042290  0.19951320     0.16800
H72         H  0.22505807  0.50819408  0.15690828     0.02600
H73         H  0.20514951  0.53330167  0.28141061     0.17100
H74         H  0.27702716  0.58666930  0.20338545     0.16900
C75         C  0.96391573  0.05988928  0.46061876     0.88700
C76         C  0.41085603  0.05667141  0.42750155    -0.51500
C77         C  0.42795816  0.03479286  0.40517918     0.11600
C78         C  0.98939729  0.01989665  0.41317097     0.22600
C79         C  0.97038469  0.03295072  0.48239908    -0.52300
C80         C  0.98315522  0.01160631  0.45779401     0.11700
C81         C  0.02532306  0.06330989  0.43717009    -0.51800
C82         C  0.03925961  0.04252048  0.41207834     0.12300
H83         H  0.36762417  0.06800535  0.42254603     0.16800
H84         H  0.99944083  0.00287619  0.39271935     0.02600
H85         H  0.96274200  0.03127065  0.51427572     0.17100
H86         H  0.05438770  0.08120864  0.43927504     0.16900
C87         C  0.23703636  0.05212179  0.28536583     0.88700
C88         C  0.29244192  0.04795058  0.31357539    -0.51500
C89         C  0.28798860  0.02533214  0.33694494     0.11600
C90         C  0.22819454  0.00859637  0.32895652     0.22600
C91         C  0.23401624  0.02637979  0.26092244    -0.52300
C92         C  0.22975773  0.00324506  0.28342149     0.11700
C93         C  0.17838269  0.05156900  0.31217399    -0.51800
C94         C  0.17338356  0.02876973  0.33531927     0.12300
H95         H  0.32959004  0.06271099  0.31689392     0.16800
H96         H  0.22454661  0.99007373  0.34767100     0.02600
H97         H  0.23327077  0.02681927  0.22858721     0.17100
H98         H  0.14378694  0.06780003  0.31248406     0.16900
O99         O  0.35277885  0.25747057  0.31027326    -0.55600
C100        C  0.25175392  0.21283333  0.35043856     0.77000
O101        O  0.28418579  0.26561698  0.22171652    -0.56800
C102        C  0.40417723  0.24604113  0.30160810     0.77000
C103        C  0.26699840  0.17774141  0.23414101     0.79400
Cd104      Cd  0.28759105  0.22849922  0.27175071     1.37500
O105        O  0.30507024  0.20641441  0.33671693    -0.54800
O106        O  0.31905750  0.18968520  0.22964159    -0.54400
C107        C  0.23721619  0.27714085  0.23783248     0.79400
O108        O  0.22274291  0.19087436  0.25031942    -0.56800
O109        O  0.21466717  0.22566302  0.32763633    -0.55200
O110        O  0.40381297  0.22825880  0.27460801    -0.55200
O111        O  0.20950657  0.26455041  0.26557826    -0.54400
O112        O  0.55740944  0.24492929  0.40985295    -0.55600
C113        C  0.15171288  0.20822678  0.44654044     0.77000
O114        O  0.47988078  0.27533662  0.49609151    -0.56800
C115        C  0.50113740  0.24562245  0.39826241     0.77000
C116        C  0.97843059  0.18064059  0.51379520     0.79400
Cd117      Cd  0.53043641  0.23244393  0.47932418     1.37500
O118        O  0.10066875  0.19684767  0.43807522    -0.55600
O119        O  0.44353480  0.20078864  0.48509842    -0.54400
C120        C  0.52861437  0.28582477  0.51050443     0.79400
O121        O  0.51510839  0.19620680  0.53000224    -0.56800
O122        O  0.15091096  0.22573865  0.47386284    -0.55200
O123        O  0.45874514  0.24110334  0.42401323    -0.55200
O124        O  0.57509649  0.27039067  0.51699883    -0.54400
C125        C  0.51493535  0.41096075  0.45003914     0.88700
C126        C  0.05808461  0.40601387  0.43424245    -0.51500
C127        C  0.05354975  0.42882261  0.41134237     0.11600
C128        C  0.48377248  0.45654016  0.41710366     0.22600
C129        C  0.49518211  0.43262115  0.48012364    -0.52300
C130        C  0.47916060  0.45666266  0.46283369     0.11700
C131        C  0.45949681  0.40884279  0.42109416    -0.51800
C132        C  0.44269533  0.43292462  0.40371973     0.12300
H133        H  0.09435791  0.39075419  0.42974071     0.16800
H134        H  0.47046353  0.47615149  0.40307765     0.02600
H135        H  0.49446439  0.42914558  0.51209534     0.17100
H136        H  0.43452262  0.39011825  0.41629194     0.16900
C137        C  0.22994255  0.40123766  0.28298141     0.88700
C138        C  0.18116478  0.40538758  0.31605799    -0.51500
C139        C  0.19444745  0.42632618  0.34081261     0.11600
C140        C  0.25564682  0.44127495  0.32984291     0.22600
C141        C  0.23331704  0.42831828  0.26111141    -0.52300
C142        C  0.24602919  0.44969456  0.28553905     0.11700
C143        C  0.29280914  0.39813022  0.30445455    -0.51800
C144        C  0.30696014  0.41885330  0.32927064     0.12300
H145        H  0.14086591  0.39229766  0.32043820     0.16800
H146        H  0.26555951  0.45833599  0.35004531     0.02600
H147        H  0.22351234  0.43010526  0.22950076     0.17100
H148        H  0.32288932  0.38043404  0.30121194     0.16900
C149        C  0.15634554  0.43166311  0.37701262    -0.14200
C150        C  0.09320412  0.43268798  0.37546891    -0.29400
H151        H  0.18013590  0.43232698  0.40552325     0.14800
H152        H  0.06972830  0.43367429  0.34683848     0.15400
C153        C  0.38742768  0.43690004  0.37685255    -0.14200
C154        C  0.36356175  0.41668612  0.35524355    -0.29400
H155        H  0.36739885  0.45703061  0.37434125     0.14800
H156        H  0.38720092  0.39718981  0.35603769     0.15400
C157        C  0.53339681  0.31455513  0.51373871    -0.16300
C158        C  0.53644044  0.33821729  0.50541240     0.07800
C159        C  0.53611458  0.36415330  0.48768076     0.09600
C160        C  0.53045055  0.38533912  0.47007941    -0.17100
C161        C  0.23354765  0.20637264  0.39034019    -0.11100
C162        C  0.20468002  0.20463215  0.42104671    -0.12600
C163        C  0.45720844  0.25028528  0.32645988    -0.11100
C164        C  0.48523998  0.25009100  0.35742581    -0.12600
C165        C  0.22025420  0.30460942  0.22881303    -0.16300
C166        C  0.21258516  0.32871669  0.23081334     0.07800
C167        C  0.21132660  0.35614805  0.24208570     0.09600
C168        C  0.21653108  0.37786875  0.25773173    -0.17100
C169        C  0.24218975  0.07696125  0.26124426    -0.16300
C170        C  0.24744011  0.09852755  0.24457512     0.07800
C171        C  0.25420618  0.12538357  0.23065631     0.09600
C172        C  0.26015821  0.14944674  0.22639577    -0.17100
C173        C  0.95068753  0.08284712  0.48695762    -0.16300
C174        C  0.94578053  0.10359814  0.50533362     0.07800
C175        C  0.94809532  0.13015661  0.52016066     0.09600
C176        C  0.95788801  0.15393725  0.52368663    -0.17100
C177        C  0.09319732  0.04484262  0.38369465    -0.14200
C178        C  0.12074929  0.02413762  0.36428849    -0.29400
H179        H  0.11210019  0.06497221  0.37930756     0.14800
H180        H  0.10670028  0.00355089  0.37077300     0.15400
C181        C  0.32919735  0.02172258  0.37215988    -0.14200
C182        C  0.39135889  0.02653709  0.36994262    -0.29400
H183        H  0.30679267  0.01888780  0.40102242     0.14800
H184        H  0.41435449  0.02796618  0.34104635     0.15400
C185        C  0.24267818  0.47860316  0.27267306    -0.14200
C186        C  0.23085373  0.48681188  0.23482259    -0.29400
H187        H  0.24757672  0.49341843  0.29599461     0.14800
H188        H  0.22867130  0.47221144  0.21104854     0.15400
C189        C  0.46338809  0.48684081  0.03083409    -0.14200
C190        C  0.46223983  0.48155402  0.48463965    -0.29400
H191        H  0.96494308  0.46846871  0.04760138     0.14800
H192        H  0.43772440  0.49676303  0.46724754     0.15400
C193        C  0.31362224  0.55158480  0.14615779    -0.14200
C194        C  0.34473587  0.53121599  0.12829999    -0.29400
H195        H  0.32946771  0.57212660  0.14116967     0.14800
H196        H  0.33373473  0.51043544  0.13585999     0.15400
C197        C  0.11152597  0.53505371  0.13710007    -0.14200
C198        C  0.04984980  0.52902478  0.13815538    -0.29400
H199        H  0.13369650  0.54028433  0.10887590     0.14800
H200        H  0.02861626  0.52213129  0.16588583     0.15400
C201        C  0.47246040  0.58771411  0.03395168    -0.16300
C202        C  0.47745945  0.60975693  0.01893406     0.07800
C203        C  0.48580639  0.63699054  0.00783474     0.09600
C204        C  0.49656942  0.66080274  0.00643786    -0.17100
C205        C  0.27478876  0.70531929  0.10669760    -0.11100
C206        C  0.23757435  0.70472733  0.08013766    -0.12600
C207        C  0.48481738  0.73682554  0.20454378    -0.11100
C208        C  0.51798635  0.73799635  0.17538933    -0.12600
C209        C  0.21518204  0.65744757  0.28529891    -0.16300
C210        C  0.19892602  0.63412833  0.28481216     0.07800
C211        C  0.18601013  0.60724701  0.27349112     0.09600
C212        C  0.18304328  0.58581966  0.25661108    -0.17100
C213        C  0.22285271  0.97590177  0.26557434    -0.14200
C214        C  0.24036712  0.97061324  0.22761076    -0.29400
H215        H  0.19990693  0.96051652  0.28352207     0.14800
H216        H  0.26444242  0.98601099  0.21032014     0.15400
C217        C  0.15865708  0.87617584  0.20880967    -0.16300
C218        C  0.15985019  0.85327130  0.22169466     0.07800
C219        C  0.17419343  0.82625041  0.23311261     0.09600
C220        C  0.19357831  0.80347063  0.23853409    -0.17100
C221        C  0.94775316  0.98269540  0.00906318    -0.14200
C222        C  0.98337196  0.98284506  0.47131772    -0.29400
H223        H  0.42481684  0.00363618  0.02335077     0.14800
H224        H  0.98690742  0.96778360  0.44813089     0.15400
C225        C  0.02931057  0.81164281  0.01829184    -0.16300
C226        C  0.02558606  0.83588330  0.01831122     0.07800
C227        C  0.02034527  0.86369316  0.02612996     0.09600
C228        C  0.01156597  0.88650029  0.03707417    -0.17100
C229        C  0.10844941  0.96573880  0.14208061    -0.14200
C230        C  0.05380182  0.96871672  0.12207108    -0.29400
H231        H  0.12609945  0.98416774  0.15526481     0.14800
H232        H  0.03345295  0.98888425  0.12334090     0.15400
C233        C  0.31018246  0.91981633  0.11835955    -0.14200
C234        C  0.34911908  0.94052903  0.11040063    -0.29400
H235        H  0.32061330  0.90004800  0.10639848     0.14800
H236        H  0.33921637  0.96020625  0.12304330     0.15400
C237        C  0.93939492  0.89918828  0.51944805     0.88700
C238        C  0.40632474  0.91182346  0.56086959    -0.51500
C239        C  0.41016474  0.93417115  0.58442198     0.11600
C240        C  0.96558816  0.93837526  0.56762089     0.22600
C241        C  0.95179433  0.92588919  0.49788916    -0.52300
C242        C  0.96561012  0.94667918  0.52299651     0.11700
C243        C  0.99780525  0.89395435  0.54501590    -0.51800
C244        C  0.01202688  0.91442413  0.57023248     0.12300
H245        H  0.36732704  0.89780386  0.56233007     0.16800
H246        H  0.97606441  0.95510474  0.58832330     0.02600
H247        H  0.94833047  0.92795879  0.46574059     0.17100
H248        H  0.02505844  0.87531109  0.54379627     0.16900
C249        C  0.20506791  0.90574091  0.69822201     0.88700
C250        C  0.26246239  0.90928842  0.67086784    -0.51500
C251        C  0.25885941  0.93153125  0.64665646     0.11600
C252        C  0.19805474  0.94823828  0.65253727     0.22600
C253        C  0.19968942  0.93199989  0.72150090    -0.52300
C254        C  0.19597580  0.95454174  0.69768339     0.11700
C255        C  0.14832984  0.90578630  0.67032354    -0.51800
C256        C  0.14445510  0.92801350  0.64604872     0.12300
H257        H  0.30050048  0.89458461  0.66889964     0.16800
H258        H  0.19520364  0.96632228  0.63283217     0.02600
H259        H  0.19984141  0.93231723  0.75384265     0.17100
H260        H  0.11396437  0.88967594  0.67034176     0.16900
O261        O  0.35879260  0.70431319  0.69269570    -0.55600
C262        C  0.24335360  0.73333538  0.62481974     0.77000
O263        O  0.27330872  0.69371053  0.76142974    -0.56800
C264        C  0.39500976  0.72423456  0.69627744     0.77000
C265        C  0.22233005  0.77955573  0.74242093     0.79400
Cd266      Cd  0.26475023  0.72931138  0.70959619     1.37500
O267        O  0.29268767  0.74240731  0.64027180    -0.55600
O268        O  0.26663155  0.76640813  0.75860800    -0.54400
C269        C  0.22807439  0.67999655  0.74836161     0.79400
O270        O  0.19289048  0.76808778  0.71478478    -0.56800
O271        O  0.20365866  0.72251892  0.64812940    -0.55200
O272        O  0.37267462  0.74563319  0.71127989    -0.55200
O273        O  0.19540370  0.69047445  0.72086864    -0.54400
O274        O  0.11329573  0.75695976  0.52842642    -0.55600
C275        C  0.50589420  0.72861920  0.60724690     0.77000
O276        O  0.53964125  0.77027904  0.47264252    -0.56800
C277        C  0.15346548  0.73823917  0.52492414     0.77000
C278        C  0.48124961  0.68592088  0.49395378     0.79400
Cd279      Cd  0.53537843  0.73412876  0.52475426     1.37500
O280        O  0.54547810  0.71303157  0.59108667    -0.55600
O281        O  0.53228139  0.69477179  0.47943501    -0.54400
C282        C  0.97297440  0.77807477  0.47240150     0.79400
O283        O  0.45242879  0.70080460  0.51843054    -0.56800
O284        O  0.47984909  0.74630987  0.58543860    -0.55200
O285        O  0.13857057  0.71790912  0.50440366    -0.55200
O286        O  0.46678417  0.77291195  0.51758461    -0.54400
C287        C  0.44998894  0.56198873  0.54382362     0.88700
C288        C  0.01144100  0.56364990  0.56403362    -0.51500
C289        C  0.02601248  0.54207144  0.58790201     0.11600
C290        C  0.47490796  0.51898435  0.58624586     0.22600
C291        C  0.45827698  0.53674187  0.51883754    -0.52300
C292        C  0.47052579  0.51382719  0.54073829     0.11700
C293        C  0.39839232  0.55515419  0.57413281    -0.51800
C294        C  0.41132552  0.53265135  0.59666301     0.12300
H295        H  0.03829691  0.58224449  0.56405114     0.16800
H296        H  0.48502997  0.50068056  0.60446057     0.02600
H297        H  0.45572472  0.53748349  0.48661503     0.17100
H298        H  0.35697546  0.56773931  0.57881340     0.16900
C299        C  0.21506291  0.55281251  0.71631438     0.88700
C300        C  0.15620150  0.55074885  0.69046291    -0.51500
C301        C  0.15392761  0.52794154  0.66781699     0.11600
C302        C  0.21098321  0.50896428  0.67418967     0.22600
C303        C  0.21590181  0.52720297  0.74164259    -0.52300
C304        C  0.21425869  0.50391751  0.71988956     0.11700
C305        C  0.27046019  0.54981869  0.68732002    -0.51800
C306        C  0.26836389  0.52693437  0.66487062     0.12300
H307        H  0.11993048  0.56629971  0.68979712     0.16800
H308        H  0.20931152  0.49031772  0.65605112     0.02600
H309        H  0.21583363  0.52778385  0.77398745     0.17100
H310        H  0.30572518  0.56533614  0.68289154     0.16900
C311        C  0.94357981  0.05985696  0.93790650     0.88700
C312        C  0.39086879  0.06060361  0.90999962    -0.51500
C313        C  0.39480499  0.03677647  0.88978138     0.11600
C314        C  0.95542638  0.01386509  0.90151654     0.22600
C315        C  0.94770894  0.03588836  0.96640055    -0.52300
C316        C  0.95376300  0.01144904  0.94775282     0.11700
C317        C  0.00254106  0.05782566  0.91183981    -0.51800
C318        C  0.00905848  0.03386270  0.89217304     0.12300
H319        H  0.35452990  0.07566113  0.90427700     0.16800
H320        H  0.96039435  0.99429656  0.88580049     0.02600
H321        H  0.94792690  0.03854101  0.99839107     0.17100
H322        H  0.03623534  0.07413566  0.90938207     0.16900
C323        C  0.21459575  0.06562942  0.76552590     0.88700
C324        C  0.26599169  0.05976010  0.79617804    -0.51500
C325        C  0.25342102  0.03824440  0.82056927     0.11600
C326        C  0.19031325  0.02436254  0.81141059     0.22600
C327        C  0.20718718  0.03947101  0.74251240    -0.52300
C328        C  0.19468407  0.01750331  0.76637524     0.11700
C329        C  0.15407564  0.06871635  0.78981709    -0.51800
C330        C  0.14071865  0.04725553  0.81402672     0.12300
H331        H  0.30698305  0.07247434  0.79980869     0.16800
H332        H  0.18066102  0.00678735  0.83115713     0.02600
H333        H  0.21315492  0.03877389  0.71049007     0.17100
H334        H  0.12490453  0.08682236  0.78871201     0.16900
O335        O  0.37395791  0.26927164  0.80048782    -0.55600
C336        C  0.29088209  0.22367728  0.85501946     0.77000
O337        O  0.26664997  0.28073488  0.73449464    -0.56800
C338        C  0.42133559  0.25750612  0.78581936     0.77000
C339        C  0.26511176  0.19036482  0.73434695     0.79400
Cd340      Cd  0.29699125  0.23959424  0.77339250     1.37500
O341        O  0.25722068  0.24230797  0.84031640    -0.54800
O342        O  0.30584169  0.20581915  0.71878184    -0.54400
C343        C  0.21604764  0.28435480  0.75397714     0.79400
O344        O  0.23654805  0.19877980  0.76490550    -0.56800
O345        O  0.32911844  0.21181498  0.83204871    -0.55200
O346        O  0.41189319  0.23970640  0.75961580    -0.55200
O347        O  0.19996494  0.26593114  0.77799367    -0.54400
O348        O  0.58886701  0.24571962  0.88075745    -0.55600
C349        C  0.18444170  0.21741559  0.93847451     0.77000
O350        O  0.60547416  0.27831069  0.98176493    -0.56800
C351        C  0.53423980  0.25402396  0.87269972     0.77000
C352        C  0.98994272  0.18594162  0.97217472     0.79400
Cd353      Cd  0.56566882  0.23675535  0.95235997     1.37500
O354        O  0.14084475  0.20192330  0.92770186    -0.55600
O355        O  0.48818484  0.20134319  0.94679769    -0.54400
C356        C  0.55187130  0.28717833  0.99172664     0.79400
O357        O  0.53885973  0.20104734  0.00238370    -0.56800
O358        O  0.16908659  0.23894286  0.95619547    -0.55200
O359        O  0.49528417  0.25521613  0.90118881    -0.55200
O360        O  0.50587404  0.27130309  0.98879957    -0.54400
C361        C  0.48422254  0.41277341  0.95210137     0.88700
C362        C  0.02725815  0.42475596  0.92164317    -0.51500
C363        C  0.00549143  0.44864235  0.90600589     0.11600
C364        C  0.44469336  0.45831953  0.92316197     0.22600
C365        C  0.47743185  0.43480320  0.98353296    -0.52300
C366        C  0.45683010  0.45891216  0.96847322     0.11700
C367        C  0.41949328  0.41103826  0.93226539    -0.51800
C368        C  0.39818109  0.43508651  0.91675259     0.12300
H369        H  0.07387178  0.41664892  0.91582446     0.16800
H370        H  0.42773849  0.47796289  0.91095259     0.02600
H371        H  0.48923052  0.43144978  0.01461599     0.17100
H372        H  0.39407103  0.39221225  0.93077395     0.16900
C373        C  0.16477579  0.40342077  0.81377057     0.88700
C374        C  0.11469706  0.41935726  0.83748839    -0.51500
C375        C  0.13776164  0.44253725  0.85407679     0.11600
C376        C  0.20858259  0.44701459  0.84544432     0.22600
C377        C  0.19052651  0.42369637  0.78312231    -0.52300
C378        C  0.21248762  0.44691399  0.79954626     0.11700
C379        C  0.21856069  0.39828142  0.84289341    -0.51800
C380        C  0.24261081  0.42096576  0.85937738     0.12300
H381        H  0.06493705  0.41459632  0.83685665     0.16800
H382        H  0.22683750  0.46577104  0.85895213     0.02600
H383        H  0.18893128  0.42017256  0.75124987     0.17100
H384        H  0.23739749  0.37823710  0.84910834     0.16900
C385        C  0.09819949  0.46651246  0.86353397    -0.14200
C386        C  0.04184768  0.46856565  0.88195891    -0.29400
H387        H  0.11708776  0.48540376  0.85212243     0.14800
H388        H  0.02123019  0.48870619  0.88150241     0.15400
C389        C  0.33795979  0.43904211  0.89420388    -0.14200
C390        C  0.29784797  0.41879994  0.88648130    -0.29400
H391        H  0.32867936  0.45895796  0.88186254     0.14800
H392        H  0.30792395  0.39876551  0.89791146     0.15400
C393        C  0.54242340  0.31511902  0.00042016    -0.16300
C394        C  0.53258358  0.33894816  0.99673517     0.07800
C395        C  0.51911513  0.36545401  0.98373117     0.09600
C396        C  0.50530261  0.38703463  0.96939941    -0.17100
C397        C  0.28097177  0.21563162  0.89540462    -0.11100
C398        C  0.24654038  0.21343739  0.92359278    -0.12600
C399        C  0.48098646  0.26106774  0.80421667    -0.11100
C400        C  0.51484958  0.25992389  0.83276727    -0.12600
C401        C  0.18177489  0.30947611  0.75300270    -0.16300
C402        C  0.15971061  0.33124569  0.76145087     0.07800
C403        C  0.14482744  0.35670311  0.77808775     0.09600
C404        C  0.14479529  0.37828314  0.79464313    -0.17100
C405        C  0.22740117  0.08964186  0.74096650    -0.16300
C406        C  0.23617229  0.11177030  0.72689729     0.07800
C407        C  0.24578355  0.13945224  0.71889367     0.09600
C408        C  0.25436126  0.16344222  0.72062203    -0.17100
C409        C  0.93818715  0.08618026  0.95748372    -0.16300
C410        C  0.93969950  0.10896809  0.96977639     0.07800
C411        C  0.94917579  0.13641153  0.97880621     0.09600
C412        C  0.96423345  0.15978742  0.98027102    -0.17100
C413        C  0.06154916  0.02855253  0.86339647    -0.14200
C414        C  0.08650387  0.04903334  0.84205599    -0.29400
H415        H  0.07783699  0.00796810  0.85902809     0.14800
H416        H  0.06509488  0.06892703  0.84467203     0.15400
C417        C  0.29204608  0.03254416  0.85637641    -0.14200
C418        C  0.35522889  0.03192471  0.85441934    -0.29400
H419        H  0.26846012  0.03187743  0.88515005     0.14800
H420        H  0.37865631  0.03121374  0.82559194     0.15400
C421        C  0.22888975  0.47174106  0.77667313    -0.14200
C422        C  0.21140743  0.47654809  0.73852663    -0.29400
H423        H  0.25068420  0.48764285  0.79363845     0.14800
H424        H  0.19082139  0.46068906  0.72090488     0.15400
C425        C  0.47992388  0.48679903  0.52240449    -0.14200
C426        C  0.45041432  0.48424731  0.99160776    -0.29400
H427        H  0.98878782  0.46835754  0.54410076     0.14800
H428        H  0.43528298  0.50178025  0.97456912     0.15400
C429        C  0.30915865  0.52382350  0.62928559    -0.14200
C430        C  0.37215439  0.52529830  0.63170060    -0.29400
H431        H  0.28662275  0.52376911  0.60033753     0.14800
H432        H  0.39489350  0.52398251  0.66052850     0.15400
C433        C  0.10358711  0.52317614  0.63783172    -0.14200
C434        C  0.07803348  0.54399559  0.61727891    -0.29400
H435        H  0.08996303  0.50258701  0.63158802     0.14800
H436        H  0.09692537  0.56405816  0.62179615     0.15400
C437        C  0.43866929  0.58669757  0.52035847    -0.16300
C438        C  0.43850625  0.60853511  0.50420202     0.07800
C439        C  0.44698499  0.63542072  0.49103581     0.09600
C440        C  0.46012870  0.65892870  0.48704798    -0.17100
C441        C  0.23143284  0.73587780  0.58288662    -0.11100
C442        C  0.20657444  0.73769248  0.55080090    -0.12600
C443        C  0.45446245  0.72408973  0.67682497    -0.11100
C444        C  0.48759643  0.72555371  0.64791712    -0.12600
C445        C  0.21848406  0.65252420  0.76063708    -0.16300
C446        C  0.21574143  0.62823025  0.76159709     0.07800
C447        C  0.21583251  0.60037097  0.75303064     0.09600
C448        C  0.21629414  0.57797192  0.73919076    -0.17100
C449        C  0.19022308  0.98933002  0.75159375    -0.14200
C450        C  0.19329021  0.98271591  0.71258587    -0.29400
H451        H  0.18611895  0.97374296  0.77417561     0.14800
H452        H  0.19541285  0.99830507  0.68996763     0.15400
C453        C  0.20771213  0.88124125  0.72308123    -0.16300
C454        C  0.20732972  0.85922778  0.73865471     0.07800
C455        C  0.20715567  0.83167932  0.74971007     0.09600
C456        C  0.21061588  0.80740201  0.75139407    -0.17100
C457        C  0.97588013  0.97506985  0.50982322    -0.14200
C458        C  0.96168970  0.98535837  0.96981968    -0.29400
H459        H  0.47958090  0.99947074  0.53892357     0.14800
H460        H  0.98084044  0.96845069  0.95331766     0.15400
C461        C  0.95179478  0.80462154  0.46100378    -0.16300
C462        C  0.93741889  0.82820116  0.46269374     0.07800
C463        C  0.92755962  0.85505566  0.47544935     0.09600
C464        C  0.92738561  0.87629234  0.49290068    -0.17100
C465        C  0.09350995  0.93234147  0.61634092    -0.14200
C466        C  0.06400730  0.91148181  0.59928695    -0.29400
H467        H  0.08223761  0.95288974  0.60733319     0.14800
H468        H  0.07989926  0.89103312  0.60576420     0.15400
C469        C  0.30207026  0.93490015  0.61225444    -0.14200
C470        C  0.36383995  0.93966557  0.61679812    -0.29400
H471        H  0.28368224  0.93033356  0.58295697     0.14800
H472        H  0.38156802  0.94564094  0.64569884     0.15400
C473        C  0.49088998  0.91639661  0.04646375     0.88700
C474        C  0.92949638  0.91125049  0.07549539    -0.51500
C475        C  0.90853412  0.93555359  0.08974865     0.11600
C476        C  0.45047229  0.96153771  0.07569307     0.22600
C477        C  0.47719410  0.93788454  0.01454240    -0.52300
C478        C  0.45621833  0.96181995  0.02986258     0.11700
C479        C  0.53818999  0.92948725  0.07496484    -0.51800
C480        C  0.51670713  0.95334023  0.09049984     0.12300
H481        H  0.90487167  0.89235332  0.07959308     0.16800
H482        H  0.43310946  0.98097448  0.08809888     0.02600
H483        H  0.48434349  0.93429329  0.98304262     0.17100
H484        H  0.58508338  0.92147164  0.08012238     0.16900
C485        C  0.66505503  0.90788893  0.18873078     0.88700
C486        C  0.72227061  0.90156190  0.16265829    -0.51500
C487        C  0.74970944  0.92355239  0.14576863     0.11600
C488        C  0.71565770  0.95023003  0.15620243     0.22600
C489        C  0.68786969  0.92871442  0.21914438    -0.52300
C490        C  0.71369953  0.95127928  0.20208880     0.11700
C491        C  0.61931870  0.92377350  0.16154216    -0.51800
C492        C  0.64591574  0.94636862  0.14466485     0.12300
H493        H  0.74048913  0.88119788  0.15850912     0.16800
H494        H  0.73685817  0.96839036  0.14215884     0.02600
H495        H  0.68172420  0.92601022  0.25105988     0.17100
H496        H  0.56933846  0.91954361  0.16015635     0.16900
O497        O  0.86957680  0.71404419  0.23152546    -0.55600
C498        C  0.78145543  0.73332193  0.14969642     0.77000
O499        O  0.75534205  0.70230298  0.28874791    -0.56800
C500        C  0.90098147  0.73552480  0.23312422     0.77000
C501        C  0.69462442  0.78519340  0.24599864     0.79400
Cd502      Cd  0.76823363  0.73658148  0.23407612     1.37500
O503        O  0.80525792  0.75266773  0.16839514    -0.55600
O504        O  0.73794423  0.77885508  0.27028794    -0.54400
C505        C  0.71609346  0.68849220  0.26924080     0.79400
O506        O  0.68168256  0.76812380  0.21958911    -0.56800
O507        O  0.75060439  0.71614878  0.16962089    -0.55200
O508        O  0.87269433  0.75664338  0.24481169    -0.55200
O509        O  0.69692234  0.69837728  0.23667297    -0.54400
O510        O  0.67085675  0.75420747  0.04802218    -0.55600
C511        C  0.01481800  0.73479368  0.14357928     0.77000
O512        O  0.08918777  0.77404590  0.03735723    -0.56800
C513        C  0.69650849  0.73206658  0.05779494     0.77000
C514        C  0.99845858  0.68593800  0.01877827     0.79400
Cd515      Cd  0.05105255  0.73025462  0.06049989     1.37500
O516        O  0.06628748  0.74443764  0.13137786    -0.55600
O517        O  0.05268260  0.69450455  0.01022630    -0.54400
C518        C  0.53000932  0.78763726  0.01833287     0.79400
O519        O  0.96576448  0.69968304  0.04284758    -0.56800
O520        O  0.98053373  0.72371283  0.11788259    -0.55200
O521        O  0.66251250  0.71126207  0.05901293    -0.55200
O522        O  0.98961884  0.76801071  0.03061792    -0.54400
C523        C  0.95497009  0.56127516  0.05305478     0.88700
C524        C  0.51852726  0.55801838  0.08728676    -0.51500
C525        C  0.51290397  0.53459271  0.10872997     0.11600
C526        C  0.94911304  0.51673152  0.09432014     0.22600
C527        C  0.95378441  0.53622460  0.02726973    -0.52300
C528        C  0.95018490  0.51257868  0.04852567     0.11700
C529        C  0.89646805  0.55940237  0.07956895    -0.51800
C530        C  0.89329761  0.53612133  0.10170518     0.12300
H531        H  0.55429704  0.57297480  0.09338412     0.16800
H532        H  0.94663258  0.49773073  0.11202835     0.02600
H533        H  0.95731262  0.53744569  0.99503433     0.17100
H534        H  0.86087211  0.57522300  0.08055308     0.16900
C535        C  0.69429262  0.56336242  0.23404448     0.88700
C536        C  0.63968919  0.55666704  0.20614085    -0.51500
C537        C  0.65264953  0.53601580  0.18041669     0.11600
C538        C  0.71898849  0.52362378  0.18586755     0.22600
C539        C  0.70986107  0.53686545  0.25579338    -0.52300
C540        C  0.72282377  0.51575935  0.23059211     0.11700
C541        C  0.75034657  0.56842075  0.20637048    -0.51800
C542        C  0.76382352  0.54778441  0.18112648     0.12300
H543        H  0.59699593  0.56879627  0.20437988     0.16800
H544        H  0.72884670  0.50671950  0.16517388     0.02600
H545        H  0.70836335  0.53495379  0.28804700     0.17100
H546        H  0.77669490  0.58716740  0.20623523     0.16900
C547        C  0.46030103  0.06469273  0.45820153     0.88700
C548        C  0.91345781  0.05543832  0.42896966    -0.51500
C549        C  0.92676576  0.03458339  0.40378789     0.11600
C550        C  0.49305790  0.02297440  0.41595778     0.22600
C551        C  0.47152485  0.03941053  0.48324853    -0.52300
C552        C  0.48801803  0.01718505  0.46137615     0.11700
C553        C  0.52096426  0.06874190  0.43422693    -0.51800
C554        C  0.53865623  0.04708391  0.41176466     0.12300
H555        H  0.87266970  0.06856161  0.42532676     0.16800
H556        H  0.50604626  0.00512919  0.39781647     0.02600
H557        H  0.46386507  0.03934324  0.51515870     0.17100
H558        H  0.54680915  0.08760126  0.43409974     0.16900
C559        C  0.73351003  0.05774712  0.28353051     0.88700
C560        C  0.79011170  0.05294133  0.31079214    -0.51500
C561        C  0.78597528  0.02995935  0.33351342     0.11600
C562        C  0.72551708  0.01363380  0.32583432     0.22600
C563        C  0.72893631  0.03233795  0.25826186    -0.52300
C564        C  0.72502763  0.00891088  0.28016199     0.11700
C565        C  0.67598601  0.05695349  0.31127837    -0.51800
C566        C  0.67151030  0.03388299  0.33379709     0.12300
H567        H  0.82766498  0.06752045  0.31405960     0.16800
H568        H  0.72214267  0.99486496  0.34400842     0.02600
H569        H  0.72697364  0.03320296  0.22598633     0.17100
H570        H  0.64167674  0.07327036  0.31262414     0.16900
O571        O  0.84435792  0.25949073  0.32141571    -0.55600
C572        C  0.74470283  0.21547013  0.36355432     0.77000
O573        O  0.75668255  0.27581195  0.24124277    -0.56800
C574        C  0.89226031  0.24796686  0.30690974     0.77000
C575        C  0.74530538  0.18545579  0.24287075     0.79400
Cd576      Cd  0.76890470  0.23462102  0.28448851     1.37500
O577        O  0.79726059  0.21111631  0.34723097    -0.54800
O578        O  0.79435787  0.19893030  0.23537490    -0.54400
C579        C  0.71133456  0.28530860  0.26157121     0.79400
O580        O  0.70355846  0.19664626  0.26409005    -0.56800
O581        O  0.70341173  0.22781801  0.34324504    -0.55200
O582        O  0.88456876  0.23253501  0.27740522    -0.55200
O583        O  0.68924511  0.27035440  0.28871843    -0.54400
O584        O  0.05292996  0.24722394  0.41064623    -0.55600
C585        C  0.64726840  0.21045591  0.45673817     0.77000
O586        O  0.97898378  0.26776535  0.49285554    -0.56800
C587        C  0.99991174  0.24055461  0.39738305     0.77000
C588        C  0.46717876  0.18681372  0.51285325     0.79400
Cd589      Cd  0.03533268  0.22653743  0.47670773     1.37500
O590        O  0.59588425  0.20126919  0.44418306    -0.55600
O591        O  0.95171429  0.19377388  0.48624613    -0.54400
C592        C  0.02211495  0.27783074  0.51359879     0.79400
O593        O  0.02804737  0.19051674  0.52822820    -0.56800
O594        O  0.64532574  0.22767089  0.48447942    -0.55200
O595        O  0.96293797  0.22827950  0.42090258    -0.55200
O596        O  0.06893553  0.26292043  0.52180242    -0.54400
C597        C  0.00431458  0.40291720  0.46438594     0.88700
C598        C  0.56884360  0.42374570  0.42576247    -0.51500
C599        C  0.55248162  0.44794284  0.40855920     0.11600
C600        C  0.99575567  0.44652494  0.42127261     0.22600
C601        C  0.00502382  0.42861923  0.48898370    -0.52300
C602        C  0.00023706  0.45169360  0.46655519     0.11700
C603        C  0.94371665  0.40467864  0.43966795    -0.51800
C604        C  0.93902748  0.42768225  0.41682653     0.12300
H605        H  0.61679052  0.41604638  0.42624294     0.16800
H606        H  0.99230068  0.46515346  0.40274878     0.02600
H607        H  0.00899002  0.42817184  0.52121173     0.17100
H608        H  0.90756299  0.38933493  0.44104243     0.16900
C609        C  0.70070404  0.40885627  0.31025934     0.88700
C610        C  0.65846932  0.42300401  0.34157075    -0.51500
C611        C  0.68758453  0.44437481  0.35958871     0.11600
C612        C  0.75564902  0.44890438  0.34483565     0.22600
C613        C  0.72004336  0.43148192  0.28128659    -0.52300
C614        C  0.74745699  0.45307602  0.29949548     0.11700
C615        C  0.76059641  0.40085532  0.33233148    -0.51800
C616        C  0.78993411  0.42153864  0.35067911     0.12300
H617        H  0.60912394  0.41828377  0.34570009     0.16800
H618        H  0.77896717  0.46611805  0.35953827     0.02600
H619        H  0.70749048  0.43115179  0.25000501     0.17100
H620        H  0.77798946  0.38017243  0.33387153     0.16900
C621        C  0.65618164  0.46697282  0.38114274    -0.14200
C622        C  0.59830157  0.46909059  0.39732583    -0.29400
H623        H  0.68254098  0.48569671  0.38054633     0.14800
H624        H  0.58423611  0.48933696  0.40614096     0.15400
C625        C  0.88419107  0.43476857  0.39102130    -0.14200
C626        C  0.84619934  0.41589080  0.37585173    -0.29400
H627        H  0.87684698  0.45586601  0.38343711     0.14800
H628        H  0.85728303  0.39476911  0.38148149     0.15400
C629        C  0.02039115  0.30591869  0.52307783    -0.16300
C630        C  0.01786076  0.33010340  0.51983450     0.07800
C631        C  0.01351278  0.35693893  0.50590958     0.09600
C632        C  0.00923849  0.37826616  0.48864954    -0.17100
C633        C  0.73163991  0.20745134  0.40364822    -0.11100
C634        C  0.70289813  0.20545632  0.43433583    -0.12600
C635        C  0.94987827  0.24914399  0.32810480    -0.11100
C636        C  0.98136028  0.24658185  0.35746809    -0.12600
C637        C  0.68911521  0.31271486  0.25721711    -0.16300
C638        C  0.67544073  0.33619685  0.26217665     0.07800
C639        C  0.66837126  0.36321727  0.27520889     0.09600
C640        C  0.67418116  0.38518363  0.29019666    -0.17100
C641        C  0.73699194  0.08313315  0.26041022    -0.16300
C642        C  0.73806693  0.10543381  0.24553419     0.07800
C643        C  0.73874568  0.13307492  0.23440522     0.09600
C644        C  0.74037455  0.15742722  0.23260686    -0.17100
C645        C  0.44320172  0.08852602  0.48190689    -0.16300
C646        C  0.43616656  0.10955858  0.49936127     0.07800
C647        C  0.43683000  0.13606589  0.51463030     0.09600
C648        C  0.44588383  0.15977816  0.51988048    -0.17100
C649        C  0.59262691  0.04952055  0.38338063    -0.14200
C650        C  0.62002688  0.02898409  0.36348405    -0.29400
H651        H  0.61100970  0.06973136  0.37887205     0.14800
H652        H  0.60638665  0.00832278  0.36971877     0.15400
C653        C  0.82786444  0.02510469  0.36824114    -0.14200
C654        C  0.88983512  0.03047101  0.36699120    -0.29400
H655        H  0.80610962  0.01931134  0.39630953     0.14800
H656        H  0.91265933  0.03481359  0.33869756     0.15400
C657        C  0.75190583  0.48073346  0.28153544    -0.14200
C658        C  0.73335813  0.48732430  0.24421829    -0.29400
H659        H  0.76556081  0.49672631  0.30157709     0.14800
H660        H  0.72257556  0.47164495  0.22303808     0.15400
C661        C  0.95074127  0.48555071  0.02939556    -0.14200
C662        C  0.99723400  0.47930472  0.48316823    -0.29400
H663        H  0.47497446  0.46932661  0.04899190     0.14800
H664        H  0.99910918  0.49559809  0.46159374     0.15400
C665        C  0.81390460  0.55102193  0.15065396    -0.14200
C666        C  0.84252277  0.53064520  0.13132173    -0.29400
H667        H  0.82984907  0.57152189  0.14530293     0.14800
H668        H  0.83165272  0.50985499  0.13885049     0.15400
C669        C  0.61447073  0.53181964  0.14404752    -0.14200
C670        C  0.55140436  0.52961330  0.14493684    -0.29400
H671        H  0.63867203  0.53302491  0.11550750     0.14800
H672        H  0.52710890  0.52677191  0.17319122     0.15400
C673        C  0.95761323  0.58657320  0.03022810    -0.16300
C674        C  0.96041196  0.60874072  0.01544176     0.07800
C675        C  0.96717053  0.63622257  0.00555197     0.09600
C676        C  0.97810490  0.65999497  0.00599474    -0.17100
C677        C  0.78274555  0.73220184  0.10734140    -0.11100
C678        C  0.75656635  0.73161750  0.07591465    -0.12600
C679        C  0.96084090  0.73679497  0.21352133    -0.11100
C680        C  0.99427345  0.73661893  0.18437644    -0.12600
C681        C  0.69787940  0.66155690  0.28083208    -0.16300
C682        C  0.68735239  0.63757568  0.28142406     0.07800
C683        C  0.68129799  0.60963341  0.27326615     0.09600
C684        C  0.68269417  0.58713370  0.25941070    -0.17100
C685        C  0.71670439  0.98167738  0.26208872    -0.14200
C686        C  0.73089101  0.97643530  0.22354250    -0.29400
H687        H  0.69660355  0.96612204  0.28092686     0.14800
H688        H  0.75272175  0.99196522  0.20546200     0.15400
C689        C  0.64112403  0.88304635  0.20779595    -0.16300
C690        C  0.63742131  0.86085284  0.22293664     0.07800
C691        C  0.64745557  0.83423449  0.23766378     0.09600
C692        C  0.66510893  0.81152023  0.24544948    -0.17100
C693        C  0.44339604  0.98681109  0.00639916    -0.14200
C694        C  0.49182054  0.98935966  0.47818044    -0.29400
H695        H  0.92670353  0.99945716  0.02489972     0.14800
H696        H  0.49827705  0.97334512  0.45682899     0.15400
C697        C  0.52224942  0.81560172  0.00836036    -0.16300
C698        C  0.51978829  0.83988651  0.00903804     0.07800
C699        C  0.51734113  0.86766747  0.01782073     0.09600
C700        C  0.51052049  0.89041688  0.02962654    -0.17100
C701        C  0.60960133  0.97072637  0.13207795    -0.14200
C702        C  0.55425398  0.97330947  0.11290887    -0.29400
H703        H  0.62997506  0.98959491  0.14192381     0.14800
H704        H  0.53566033  0.99378458  0.11136357     0.15400
C705        C  0.80712002  0.92024111  0.12057302    -0.14200
C706        C  0.84887704  0.93995873  0.11285321    -0.29400
H707        H  0.81625798  0.90002962  0.10981992     0.14800
H708        H  0.84026252  0.96002840  0.12445372     0.15400
C709        C  0.46446808  0.90715072  0.53468448     0.88700
C710        C  0.88654637  0.90526106  0.54950303    -0.51500
C711        C  0.90053698  0.92561568  0.57535907     0.11600
C712        C  0.47220466  0.94985571  0.57881620     0.22600
C713        C  0.47241672  0.93308543  0.51056271    -0.52300
C714        C  0.47694497  0.95569835  0.53350219     0.11700
C715        C  0.52009519  0.90641684  0.56355850    -0.51800
C716        C  0.52431269  0.92884884  0.58691464     0.12300
H717        H  0.84457402  0.89296914  0.55235146     0.16800
H718        H  0.47544455  0.96808090  0.59777535     0.02600
H719        H  0.47359277  0.93313470  0.47824761     0.17100
H720        H  0.55373419  0.88982763  0.56463273     0.16900
C721        C  0.73305194  0.90039028  0.71239952     0.88700
C722        C  0.78354134  0.90560309  0.68048565    -0.51500
C723        C  0.76801196  0.92563105  0.65398811     0.11600
C724        C  0.70378555  0.93904271  0.66283393     0.22600
C725        C  0.72258210  0.92755414  0.73283284    -0.52300
C726        C  0.70707573  0.94806430  0.70689663     0.11700
C727        C  0.67267699  0.89526456  0.68898940    -0.51800
C728        C  0.65695258  0.91544251  0.66297914     0.12300
H729        H  0.82531302  0.89301268  0.67713400     0.16800
H730        H  0.69221983  0.95554122  0.64150401     0.02600
H731        H  0.72864851  0.93015485  0.76465408     0.17100
H732        H  0.64552910  0.87683867  0.69195521     0.16900
O733        O  0.89030974  0.69718127  0.69087351    -0.55600
C734        C  0.77006269  0.73031936  0.63948602     0.77000
O735        O  0.81868628  0.68587348  0.76803337    -0.56800
C736        C  0.93257376  0.71485742  0.69297836     0.77000
C737        C  0.78234724  0.77634765  0.75635467     0.79400
Cd738      Cd  0.80954365  0.72469769  0.72091040     1.37500
O739        O  0.82315121  0.73853926  0.65039466    -0.55600
O740        O  0.82723524  0.76196363  0.76953054    -0.54400
C741        C  0.76657569  0.67577034  0.75813812     0.79400
O742        O  0.74717340  0.76577960  0.73073982    -0.56800
O743        O  0.73466716  0.72018451  0.66599221    -0.55200
O744        O  0.92170839  0.73540763  0.71422111    -0.55200
O745        O  0.73141790  0.68994656  0.73601019    -0.54400
O746        O  0.62539146  0.75628884  0.55232900    -0.55600
C747        C  0.01265592  0.72060012  0.59068611     0.77000
O748        O  0.01489099  0.76508585  0.45326762    -0.56800
C749        C  0.66352707  0.73719411  0.54580944     0.77000
C750        C  0.97256828  0.68131951  0.47776001     0.79400
Cd751      Cd  0.02592411  0.72998090  0.50695642     1.37500
O752        O  0.04923285  0.70627902  0.56992160    -0.55600
O753        O  0.02364940  0.68999475  0.46296779    -0.54400
C754        C  0.49511314  0.78363260  0.48848924     0.79400
O755        O  0.94337134  0.69656972  0.50160398    -0.56800
O756        O  0.98060373  0.73853879  0.57278459    -0.55200
O757        O  0.64583128  0.71838918  0.52319396    -0.55200
O758        O  0.95334932  0.76775474  0.50460363    -0.54400
C759        C  0.95300020  0.55976302  0.53823629     0.88700
C760        C  0.51021633  0.56400659  0.56811458    -0.51500
C761        C  0.52394000  0.54173637  0.59058869     0.11600
C762        C  0.97987652  0.51836251  0.58336623     0.22600
C763        C  0.96571656  0.53415594  0.51474066    -0.52300
C764        C  0.97987051  0.51220033  0.53814258     0.11700
C765        C  0.90029656  0.55248430  0.56759315    -0.51800
C766        C  0.91434040  0.53084526  0.59157627     0.12300
H767        H  0.53900341  0.58206126  0.56832113     0.16800
H768        H  0.99045621  0.50063727  0.60266561     0.02600
H769        H  0.96164517  0.53370668  0.48261409     0.17100
H770        H  0.85755142  0.56442691  0.57093251     0.16900
C771        C  0.72259975  0.55042822  0.71362780     0.88700
C772        C  0.66240107  0.54905770  0.68888388    -0.51500
C773        C  0.65775352  0.52633684  0.66606318     0.11600
C774        C  0.71431163  0.50689454  0.67093889     0.22600
C775        C  0.72319053  0.52456122  0.73851287    -0.52300
C776        C  0.71903687  0.50142960  0.71646829     0.11700
C777        C  0.77641083  0.54711513  0.68361930    -0.51800
C778        C  0.77228543  0.52443818  0.66086985     0.12300
H779        H  0.62670105  0.56485170  0.68944969     0.16800
H780        H  0.71083757  0.48841180  0.65256292     0.02600
H781        H  0.72428838  0.52492852  0.77083151     0.17100
H782        H  0.81255988  0.56225291  0.67906952     0.16900
C783        C  0.44608668  0.06529757  0.93814110     0.88700
C784        C  0.88887572  0.05375546  0.91026089    -0.51500
C785        C  0.89468524  0.02972894  0.89074693     0.11600
C786        C  0.45354305  0.01969474  0.90037743     0.22600
C787        C  0.44744614  0.04081904  0.96584268    -0.52300
C788        C  0.45104967  0.01662922  0.94636737     0.11700
C789        C  0.50517078  0.06251833  0.91202132    -0.51800
C790        C  0.50931184  0.03863674  0.89187753     0.12300
H791        H  0.85098604  0.06809842  0.90456410     0.16800
H792        H  0.45659962  0.00027717  0.88410126     0.02600
H793        H  0.44754846  0.04291888  0.99798383     0.17100
H794        H  0.54065494  0.07813749  0.90992366     0.16900
C795        C  0.72060651  0.06164608  0.76439255     0.88700
C796        C  0.77061257  0.05540169  0.79595391    -0.51500
C797        C  0.75444421  0.03498881  0.82156349     0.11600
C798        C  0.68955710  0.02267758  0.81299382     0.22600
C799        C  0.70976550  0.03490178  0.74332642    -0.52300
C800        C  0.69422588  0.01408041  0.76868668     0.11700
C801        C  0.66025749  0.06719733  0.78798698    -0.51800
C802        C  0.64343905  0.04701520  0.81368110     0.12300
H803        H  0.81343962  0.06703023  0.79913164     0.16800
H804        H  0.67721191  0.00607821  0.83393242     0.02600
H805        H  0.71739305  0.03276219  0.71154110     0.17100
H806        H  0.63398338  0.08603944  0.78547775     0.16900
O807        O  0.88695142  0.26220028  0.76733413    -0.55600
C808        C  0.78968233  0.21570348  0.84972561     0.77000
O809        O  0.75271286  0.27132971  0.73021873    -0.56800
C810        C  0.92678252  0.24340375  0.77252545     0.77000
C811        C  0.77021516  0.18391827  0.72175790     0.79400
Cd812      Cd  0.79685043  0.23127094  0.76729351     1.37500
O813        O  0.75095352  0.20733736  0.82430265    -0.54800
O814        O  0.81541502  0.19894351  0.71128930    -0.54400
C815        C  0.71606772  0.27817218  0.75840398     0.79400
O816        O  0.73404411  0.19262974  0.74869924    -0.56800
O817        O  0.83352815  0.23051471  0.83723603    -0.55200
O818        O  0.90818848  0.21944319  0.76806641    -0.55200
O819        O  0.71388964  0.26265300  0.78829555    -0.54400
O820        O  0.99080839  0.24320051  0.88734441    -0.55600
C821        C  0.68856391  0.21699462  0.93908527     0.77000
O822        O  0.99353176  0.27314510  0.95943175    -0.56800
C823        C  0.03416792  0.24492880  0.86166138     0.77000
C824        C  0.50006829  0.18969942  0.97946933     0.79400
Cd825      Cd  0.05631595  0.23290310  0.94478832     1.37500
O826        O  0.64043016  0.20621338  0.92444686    -0.55600
O827        O  0.97609980  0.19823270  0.94040791    -0.54400
C828        C  0.03296562  0.28392877  0.98216228     0.79400
O829        O  0.03090010  0.19661286  0.99416697    -0.56800
O830        O  0.68041967  0.23537528  0.96471864    -0.55200
O831        O  0.08985164  0.24196045  0.87392060    -0.55200
O832        O  0.08044042  0.26992286  0.99184328    -0.54400
C833        C  0.98082433  0.41167715  0.95134974     0.88700
C834        C  0.52855792  0.42455295  0.92003494    -0.51500
C835        C  0.50764082  0.44860692  0.90461922     0.11600
C836        C  0.93986151  0.45687938  0.92192401     0.22600
C837        C  0.96842465  0.43320005  0.98302603    -0.52300
C838        C  0.94716601  0.45714267  0.96758055     0.11700
C839        C  0.91869596  0.40909530  0.92864624    -0.51800
C840        C  0.89661931  0.43296931  0.91309779     0.12300
H841        H  0.57310238  0.41525054  0.91200697     0.16800
H842        H  0.92223796  0.47634581  0.90947356     0.02600
H843        H  0.97719410  0.42971476  0.01446311     0.17100
H844        H  0.89547407  0.38985612  0.92525145     0.16900
C845        C  0.66508873  0.40021238  0.80995375     0.88700
C846        C  0.61473923  0.41612096  0.83357373    -0.51500
C847        C  0.63721531  0.43950249  0.84990591     0.11600
C848        C  0.70804420  0.44405480  0.84133295     0.22600
C849        C  0.69056020  0.42053132  0.77906095    -0.52300
C850        C  0.71233785  0.44384964  0.79545729     0.11700
C851        C  0.71887520  0.39536457  0.83913159    -0.51800
C852        C  0.74233244  0.41815017  0.85545615     0.12300
H853        H  0.56499994  0.41134153  0.83262624     0.16800
H854        H  0.72603698  0.46284235  0.85490031     0.02600
H855        H  0.68931456  0.41694792  0.74717776     0.17100
H856        H  0.73797860  0.37541149  0.84568582     0.16900
C857        C  0.59694508  0.46372018  0.85676427    -0.14200
C858        C  0.54211935  0.46689239  0.87678889    -0.29400
H859        H  0.61436750  0.48184532  0.84209135     0.14800
H860        H  0.52132273  0.48692747  0.87421918     0.15400
C861        C  0.83802323  0.43632994  0.88894409    -0.14200
C862        C  0.79666287  0.41630498  0.88315834    -0.29400
H863        H  0.83030486  0.45570832  0.87448484     0.14800
H864        H  0.80469025  0.39678323  0.89698449     0.15400
C865        C  0.02678219  0.31182010  0.99254384    -0.16300
C866        C  0.02147767  0.33603739  0.99134878     0.07800
C867        C  0.01316697  0.36353003  0.98129069     0.09600
C868        C  0.00200367  0.38585695  0.96853340    -0.17100
C869        C  0.77917378  0.21110796  0.89125639    -0.11100
C870        C  0.74804559  0.21157989  0.92115561    -0.12600
C871        C  0.98574009  0.24834380  0.79133942    -0.11100
C872        C  0.01863960  0.24869844  0.82043202    -0.12600
C873        C  0.68179898  0.30338794  0.75859462    -0.16300
C874        C  0.66012197  0.32555298  0.76526650     0.07800
C875        C  0.64557819  0.35208749  0.77814927     0.09600
C876        C  0.64554242  0.37461018  0.79184039    -0.17100
C877        C  0.73718539  0.08436096  0.73788068    -0.16300
C878        C  0.74756818  0.10545949  0.72088492     0.07800
C879        C  0.75697874  0.13254609  0.70873355     0.09600
C880        C  0.76352512  0.15672539  0.70796924    -0.17100
C881        C  0.44340284  0.09122593  0.95916997    -0.16300
C882        C  0.44710341  0.11337480  0.97366690     0.07800
C883        C  0.45851586  0.14028099  0.98509971     0.09600
C884        C  0.47442796  0.16351689  0.98763903    -0.17100
C885        C  0.56167911  0.03190741  0.86371100    -0.14200
C886        C  0.58981785  0.05127271  0.84177188    -0.29400
H887        H  0.57480505  0.01089007  0.85985570     0.14800
H888        H  0.57179613  0.07180073  0.84383780     0.15400
C889        C  0.79102045  0.02934300  0.85810639    -0.14200
C890        C  0.85284871  0.02327919  0.85687466    -0.29400
H891        H  0.76866206  0.03418335  0.88635060     0.14800
H892        H  0.87457665  0.01709763  0.82901840     0.15400
C893        C  0.73048287  0.46859137  0.77281962    -0.14200
C894        C  0.71364614  0.47393931  0.73472096    -0.29400
H895        H  0.75344581  0.48404368  0.79002460     0.14800
H896        H  0.69169296  0.45849044  0.71695877     0.15400
C897        C  0.98981090  0.48459627  0.52236619    -0.14200
C898        C  0.93688115  0.48233960  0.99046251    -0.29400
H899        H  0.50376801  0.47144673  0.54002233     0.14800
H900        H  0.91978541  0.49940428  0.97321799     0.15400
C901        C  0.81330985  0.52067796  0.62538071    -0.14200
C902        C  0.87588636  0.52436336  0.62729915    -0.29400
H903        H  0.79095002  0.51789633  0.59672638     0.14800
H904        H  0.89859634  0.52560766  0.65610885     0.15400
C905        C  0.60472901  0.52175938  0.63781125    -0.14200
C906        C  0.57759847  0.54282837  0.61884498    -0.29400
H907        H  0.59048146  0.50127013  0.63135844     0.14800
H908        H  0.59715137  0.56275648  0.62348063     0.15400
C909        C  0.93951211  0.58342276  0.51295445    -0.16300
C910        C  0.93594214  0.60433538  0.49444964     0.07800
C911        C  0.94071271  0.63062426  0.47825154     0.09600
C912        C  0.95208896  0.65410298  0.47220553    -0.17100
C913        C  0.74962983  0.73289750  0.59906953    -0.11100
C914        C  0.71922679  0.73505685  0.56910392    -0.12600
C915        C  0.98354748  0.71417230  0.66543433    -0.11100
C916        C  0.00556942  0.71621267  0.63256869    -0.12600
C917        C  0.75092380  0.64819092  0.76707850    -0.16300
C918        C  0.74075227  0.62431805  0.76440793     0.07800
C919        C  0.73215481  0.59725593  0.75240439     0.09600
C920        C  0.72704222  0.57540749  0.73700205    -0.17100
C921        C  0.69195240  0.98518551  0.75661670    -0.14200
C922        C  0.69820370  0.97679611  0.71852952    -0.29400
H923        H  0.68829133  0.97046588  0.78053489     0.14800
H924        H  0.69853217  0.99134125  0.69431409     0.15400
C925        C  0.74854465  0.87756991  0.73905321    -0.16300
C926        C  0.75822931  0.85598633  0.75496838     0.07800
C927        C  0.76730678  0.82853129  0.76563555     0.09600
C928        C  0.77424330  0.80430862  0.76664194    -0.17100
C929        C  0.48356337  0.98352207  0.51732276    -0.14200
C930        C  0.45616807  0.99001888  0.96716097    -0.29400
H931        H  0.97538407  0.98992157  0.53332213     0.14800
H932        H  0.47273449  0.97310027  0.94960637     0.15400
C933        C  0.48052656  0.81092943  0.47744893    -0.16300
C934        C  0.47043784  0.83481586  0.47971810     0.07800
C935        C  0.46298277  0.86158843  0.49296146     0.09600
C936        C  0.46111292  0.88288426  0.51003951    -0.17100
C937        C  0.60367438  0.91236487  0.63508683    -0.14200
C938        C  0.57523911  0.93314174  0.61632722    -0.29400
H939        H  0.58664149  0.89201875  0.63041497     0.14800
H940        H  0.58772209  0.95374462  0.62341789     0.15400
C941        C  0.80188705  0.92891925  0.61539487    -0.14200
C942        C  0.86504382  0.92978735  0.61317598    -0.29400
H943        H  0.77433997  0.92877679  0.58828560     0.14800
H944        H  0.89207100  0.93193496  0.64027889     0.15400
loop_ 
_geom_bond_atom_site_label_1 
_geom_bond_atom_site_label_2 
_geom_bond_distance 
_geom_bond_site_symmetry_2 
_ccdc_geom_bond_type 
C1            C7   1.540   1_655  S
C1            C5   1.532       .  S
C1          C474   1.535       .  S
C1          C228   1.465   1_655  S
C2          C473   1.531       .  S
C2            H9   1.083       .  S
C2            C3   1.368       .  D
C3          C476   1.538       .  S
C3          C234   1.498       .  S
C4            C8   1.549   1_655  S
C4            C6   1.544       .  S
C4          C475   1.537       .  S
C4           H10   1.111       .  S
C5           H11   1.084   1_554  S
C5            C6   1.365       .  D
C6          C221   1.488       .  S
C7           H12   1.084       .  S
C7            C8   1.367       .  D
C8          C230   1.489       .  S
C13          C14   1.525       .  S
C13          C19   1.546       .  S
C13          C17   1.539       .  S
C13         C217   1.476       .  S
C14          H21   1.088       .  S
C14          C15   1.357       .  D
C15          C16   1.541       .  S
C15         C233   1.487       .  S
C16          C20   1.549       .  S
C16          C18   1.540       .  S
C16          H22   1.110       .  S
C17          H23   1.085       .  S
C17          C18   1.368       .  D
C18         C214   1.488       .  S
C19          H24   1.086       .  S
C19          C20   1.376       .  D
C20         C229   1.489       .  S
O25          C28   1.261       .  A
O25         Cd30   2.429       .  S
C26          O35   1.260       .  A
C26          O31   1.261       .  A
C26         C205   1.421       .  S
O27          C33   1.269       .  A
O27         Cd30   2.497       .  S
C28          O36   1.264       .  A
C28         C207   1.429       .  S
C29          O34   1.263       .  A
C29          O32   1.270       .  A
C29         C220   1.444       .  S
Cd30         O37   2.433       .  S
Cd30         O36   2.472       .  S
Cd30         O35   2.446       .  S
Cd30         O31   2.451       .  S
Cd30         O34   2.452       .  S
Cd30         O32   2.504       .  S
C33          O37   1.262       .  A
C33         C209   1.439       .  S
O38          C41   1.265       .  A
O38        Cd515   2.458       .  S
C39          O48   1.264       .  A
C39          O44   1.263       .  A
C39         C208   1.435       .  S
O40         C518   1.260       .  A
O40         Cd43   2.426       .  S
C41          O49   1.264       .  A
C41         C206   1.419       .  S
C42          O47   1.260       .  A
C42          O45   1.264   1_554  A
C42         C204   1.432       .  S
Cd43         O50   2.487   1_554  S
Cd43         O48   2.436       .  S
Cd43         O44   2.506       .  S
Cd43         O47   2.439       .  S
Cd43         O45   2.487   1_554  S
Cd43        O510   2.436       .  S
Cd43        O521   2.423       .  S
C46         O512   1.259       .  A
C46         O522   1.264   1_455  A
C46         C225   1.430       .  S
O49        Cd515   2.387       .  S
O50         C518   1.265   1_556  A
C51          C57   1.529       .  S
C51          C55   1.518       .  S
C51         C524   1.530       .  S
C51         C201   1.466       .  S
C52         C523   1.532   1_455  S
C52          H59   1.086       .  S
C52          C53   1.368       .  D
C53         C526   1.548   1_455  S
C53         C198   1.491       .  S
C54          C58   1.543       .  S
C54          C56   1.553       .  S
C54         C525   1.548       .  S
C54          H60   1.111       .  S
C55          H61   1.085   1_554  S
C55          C56   1.369       .  D
C56         C189   1.489       .  S
C57          H62   1.086       .  S
C57          C58   1.370       .  D
C58         C194   1.491       .  S
C63          C64   1.535       .  S
C63          C69   1.529       .  S
C63          C67   1.528       .  S
C63         C212   1.474       .  S
C64          H71   1.086       .  S
C64          C65   1.370       .  D
C65          C66   1.548       .  S
C65         C197   1.486       .  S
C66          C70   1.542       .  S
C66          C68   1.552       .  S
C66          H72   1.110       .  S
C67          H73   1.084       .  S
C67          C68   1.372       .  D
C68         C186   1.491       .  S
C69          H74   1.088       .  S
C69          C70   1.360       .  D
C70         C193   1.482       .  S
C75          C81   1.531   1_655  S
C75          C79   1.522       .  S
C75         C548   1.532       .  S
C75         C173   1.470       .  S
C76         C547   1.532       .  S
C76          H83   1.086       .  S
C76          C77   1.368       .  D
C77         C550   1.542       .  S
C77         C182   1.480       .  S
C78          C82   1.548   1_655  S
C78          C80   1.555       .  S
C78         C549   1.545       .  S
C78          H84   1.110       .  S
C79          H85   1.084       .  S
C79          C80   1.371       .  D
C80         C222   1.492   1_545  S
C81          H86   1.087       .  S
C81          C82   1.365       .  D
C82         C177   1.491       .  S
C87          C88   1.527       .  S
C87          C93   1.534       .  S
C87          C91   1.523       .  S
C87         C169   1.472       .  S
C88          H95   1.087       .  S
C88          C89   1.366       .  D
C89          C90   1.548       .  S
C89         C181   1.484       .  S
C90          C94   1.545       .  S
C90          C92   1.553       .  S
C90          H96   1.111   1_545  S
C91          H97   1.085       .  S
C91          C92   1.371       .  D
C92         C213   1.494   1_545  S
C93          H98   1.086       .  S
C93          C94   1.370       .  D
C94         C178   1.496       .  S
O99         C102   1.261       .  A
O99        Cd104   2.393       .  S
C100        O109   1.266       .  A
C100        O105   1.261       .  A
C100        C161   1.426       .  S
O101        C107   1.267       .  A
O101       Cd104   2.482       .  S
C102        O110   1.268       .  A
C102        C163   1.423       .  S
C103        O108   1.263       .  A
C103        O106   1.267       .  A
C103        C172   1.436       .  S
Cd104       O111   2.438       .  S
Cd104       O110   2.473       .  S
Cd104       O109   2.431       .  S
Cd104       O105   2.460       .  S
Cd104       O108   2.441       .  S
Cd104       O106   2.480       .  S
C107        O111   1.262       .  A
C107        C165   1.436       .  S
O112        C115   1.260       .  A
O112       Cd117   2.473       .  S
C113        O122   1.267       .  A
C113        O118   1.261       .  A
C113        C162   1.422       .  S
O114        C120   1.262       .  A
O114       Cd117   2.442       .  S
C115        O123   1.265       .  A
C115        C164   1.428       .  S
C116        O593   1.266   1_655  A
C116        O591   1.262       .  A
C116        C176   1.432       .  S
Cd117       O124   2.471       .  S
Cd117       O123   2.441       .  S
Cd117       O121   2.485       .  S
Cd117       O119   2.438       .  S
Cd117       O594   2.459       .  S
Cd117       O590   2.385       .  S
O118       Cd589   2.398       .  S
O119        C588   1.261       .  A
C120        O124   1.264       .  A
C120        C157   1.433       .  S
O121        C588   1.266       .  A
O122       Cd589   2.458       .  S
C125        C131   1.536       .  S
C125        C129   1.534       .  S
C125        C598   1.540       .  S
C125        C160   1.468       .  S
C126        C597   1.530       .  S
C126        H133   1.087       .  S
C126        C127   1.365       .  D
C127        C600   1.541   1_455  S
C127        C150   1.478       .  S
C128        C132   1.536       .  S
C128        C130   1.537       .  S
C128        C599   1.545       .  S
C128        H134   1.112       .  S
C129        H135   1.085       .  S
C129        C130   1.363       .  D
C130        C190   1.480       .  S
C131        H136   1.086       .  S
C131        C132   1.370       .  D
C132        C153   1.496       .  S
C137        C138   1.529       .  S
C137        C143   1.528       .  S
C137        C141   1.526       .  S
C137        C168   1.470       .  S
C138        H145   1.087       .  S
C138        C139   1.366       .  D
C139        C140   1.543       .  S
C139        C149   1.481       .  S
C140        C144   1.551       .  S
C140        C142   1.555       .  S
C140        H146   1.109       .  S
C141        H147   1.085       .  S
C141        C142   1.373       .  D
C142        C185   1.494       .  S
C143        H148   1.087       .  S
C143        C144   1.363       .  D
C144        C154   1.492       .  S
C149        H151   1.085       .  S
C149        C150   1.344       .  D
C150        H152   1.085       .  S
C153        H155   1.084       .  S
C153        C154   1.345       .  D
C154        H156   1.086       .  S
C157        C158   1.205       .  T
C158        C159   1.412       .  S
C159        C160   1.206       .  T
C161        C162   1.199       .  T
C163        C164   1.200       .  T
C165        C166   1.206       .  T
C166        C167   1.413       .  S
C167        C168   1.207       .  T
C169        C170   1.208       .  T
C170        C171   1.415       .  S
C171        C172   1.207       .  T
C173        C174   1.206       .  T
C174        C175   1.411       .  S
C175        C176   1.205       .  T
C177        H179   1.087       .  S
C177        C178   1.348       .  D
C178        H180   1.085       .  S
C181        H183   1.086       .  S
C181        C182   1.346       .  D
C182        H184   1.086       .  S
C185        H187   1.083       .  S
C185        C186   1.355       .  D
C186        H188   1.082       .  S
C189        H663   1.084       .  S
C189        C426   1.353   1_554  D
C190        H192   1.082       .  S
C190        C425   1.351       .  D
H191        C661   1.082       .  S
C193        H195   1.086       .  S
C193        C194   1.345       .  D
C194        H196   1.085       .  S
C197        H199   1.086       .  S
C197        C198   1.347       .  D
C198        H200   1.086       .  S
C201        C202   1.204       .  T
C202        C203   1.409       .  S
C203        C204   1.204       .  T
C205        C206   1.195       .  T
C207        C208   1.204       .  T
C209        C210   1.208       .  T
C210        C211   1.417       .  S
C211        C212   1.209       .  T
C213        H215   1.085       .  S
C213        C214   1.352       .  D
C214        H216   1.085       .  S
C217        C218   1.211       .  T
C218        C219   1.421       .  S
C219        C220   1.211       .  T
C221        H695   1.082       .  S
C221        C458   1.354   1_554  D
C222        H224   1.084       .  S
C222        C457   1.354       .  D
H223        C693   1.084   1_545  S
C225        C226   1.203       .  T
C226        C227   1.408       .  S
C227        C228   1.204       .  T
C229        H231   1.087       .  S
C229        C230   1.351       .  D
C230        H232   1.087       .  S
C233        H235   1.082       .  S
C233        C234   1.347       .  D
C234        H236   1.085       .  S
C237        C710   1.535       .  S
C237        C243   1.532       .  S
C237        C241   1.527       .  S
C237        C464   1.472       .  S
C238        C709   1.530       .  S
C238        H245   1.086       .  S
C238        C239   1.368       .  D
C239        C712   1.546       .  S
C239        C470   1.488       .  S
C240        C711   1.545       .  S
C240        C244   1.540   1_655  S
C240        C242   1.550       .  S
C240        H246   1.110       .  S
C241        H247   1.086       .  S
C241        C242   1.370       .  D
C242        C457   1.488       .  S
C243        H248   1.088   1_655  S
C243        C244   1.362   1_655  D
C244        C466   1.483       .  S
C249        C250   1.533       .  S
C249        C255   1.531       .  S
C249        C253   1.526       .  S
C249        C453   1.468       .  S
C250        H257   1.086       .  S
C250        C251   1.366       .  D
C251        C252   1.542       .  S
C251        C469   1.481       .  S
C252        C256   1.540       .  S
C252        C254   1.549       .  S
C252        H258   1.111       .  S
C253        H259   1.085       .  S
C253        C254   1.370       .  D
C254        C450   1.487       .  S
C255        H260   1.086       .  S
C255        C256   1.367       .  D
C256        C465   1.489       .  S
O261        C264   1.263       .  A
O261       Cd266   2.411       .  S
C262        O271   1.267       .  A
C262        O267   1.260       .  A
C262        C441   1.435       .  S
O263        C269   1.264       .  A
O263       Cd266   2.474       .  S
C264        O272   1.265       .  A
C264        C443   1.419       .  S
C265        O270   1.262       .  A
C265        O268   1.264       .  A
C265        C456   1.434       .  S
Cd266       O273   2.458       .  S
Cd266       O272   2.439       .  S
Cd266       O271   2.469       .  S
Cd266       O267   2.481       .  S
Cd266       O270   2.452       .  S
Cd266       O268   2.476       .  S
C269        O273   1.264       .  A
C269        C445   1.435       .  S
O274        C277   1.262       .  A
O274       Cd751   2.412       .  S
C275        O284   1.264       .  A
C275        O280   1.261       .  A
C275        C444   1.424       .  S
O276        C754   1.268       .  A
O276       Cd279   2.495       .  S
C277        O285   1.267       .  A
C277        C442   1.428       .  S
C278        O283   1.261       .  A
C278        O281   1.267       .  A
C278        C440   1.434       .  S
Cd279       O746   2.406       .  S
Cd279       O286   2.415       .  S
Cd279       O757   2.469       .  S
Cd279       O284   2.426       .  S
Cd279       O280   2.462       .  S
Cd279       O283   2.435       .  S
Cd279       O281   2.483       .  S
C282        O748   1.270   1_655  A
C282        O758   1.262       .  A
C282        C461   1.437       .  S
O285       Cd751   2.465       .  S
O286        C754   1.260       .  A
C287        C760   1.526       .  S
C287        C293   1.530       .  S
C287        C291   1.520       .  S
C287        C437   1.470       .  S
C288        C759   1.532   1_455  S
C288        H295   1.087       .  S
C288        C289   1.366       .  D
C289        C762   1.544   1_455  S
C289        C434   1.489       .  S
C290        C761   1.549       .  S
C290        C294   1.547       .  S
C290        C292   1.553       .  S
C290        H296   1.110       .  S
C291        H297   1.083       .  S
C291        C292   1.372       .  D
C292        C425   1.489       .  S
C293        H298   1.087       .  S
C293        C294   1.369       .  D
C294        C430   1.482       .  S
C299        C300   1.531       .  S
C299        C305   1.531       .  S
C299        C303   1.522       .  S
C299        C448   1.469       .  S
C300        H307   1.086       .  S
C300        C301   1.368       .  D
C301        C302   1.544       .  S
C301        C433   1.494       .  S
C302        C306   1.545       .  S
C302        C304   1.554       .  S
C302        H308   1.111       .  S
C303        H309   1.086       .  S
C303        C304   1.370       .  D
C304        C422   1.490       .  S
C305        H310   1.087       .  S
C305        C306   1.367       .  D
C306        C429   1.480       .  S
C311        C784   1.525       .  S
C311        C317   1.528   1_655  S
C311        C315   1.521       .  S
C311        C409   1.468       .  S
C312        C783   1.530       .  S
C312        H319   1.087       .  S
C312        C313   1.368       .  D
C313        C786   1.545       .  S
C313        C418   1.480       .  S
C314        C785   1.550       .  S
C314        C318   1.545   1_655  S
C314        C316   1.555       .  S
C314        H320   1.111   1_545  S
C315        H321   1.082       .  S
C315        C316   1.372       .  D
C316        C458   1.494   1_545  S
C317        H322   1.086       .  S
C317        C318   1.368       .  D
C318        C413   1.495       .  S
C323        C324   1.529       .  S
C323        C329   1.527       .  S
C323        C327   1.523       .  S
C323        C405   1.468       .  S
C324        H331   1.087       .  S
C324        C325   1.366       .  D
C325        C326   1.545       .  S
C325        C417   1.483       .  S
C326        C330   1.546       .  S
C326        C328   1.553       .  S
C326        H332   1.110       .  S
C327        H333   1.082       .  S
C327        C328   1.373       .  D
C328        C449   1.488   1_545  S
C329        H334   1.087       .  S
C329        C330   1.364       .  D
C330        C414   1.486       .  S
O335        C338   1.260       .  A
O335       Cd340   2.395       .  S
C336        O345   1.262       .  A
C336        O341   1.263       .  A
C336        C397   1.425       .  S
O337        C343   1.268       .  A
O337       Cd340   2.495       .  S
C338        O346   1.268       .  A
C338        C399   1.426       .  S
C339        O344   1.261       .  A
C339        O342   1.268       .  A
C339        C408   1.434       .  S
Cd340       O347   2.437       .  S
Cd340       O346   2.484       .  S
Cd340       O345   2.489       .  S
Cd340       O341   2.400       .  S
Cd340       O344   2.423       .  S
Cd340       O342   2.496       .  S
C343        O347   1.261       .  A
C343        C401   1.438       .  S
O348        C351   1.259       .  A
O348       Cd353   2.488       .  S
C349        O358   1.265       .  A
C349        O354   1.264       .  A
C349        C398   1.422       .  S
O350        C356   1.263       .  A
O350       Cd353   2.448       .  S
C351        O359   1.263       .  A
C351        C400   1.431       .  S
C352        O829   1.265   1_655  A
C352        O827   1.259       .  A
C352        C412   1.433       .  S
Cd353       O360   2.454       .  S
Cd353       O359   2.451       .  S
Cd353       O830   2.477       .  S
Cd353       O826   2.380       .  S
Cd353       O357   2.496   1_556  S
Cd353       O355   2.424       .  S
O354       Cd825   2.424       .  S
O355        C824   1.261       .  A
C356        O360   1.264       .  A
C356        C393   1.429   1_556  S
O357        C824   1.268   1_554  A
O358       Cd825   2.450       .  S
C361        C834   1.541       .  S
C361        C367   1.535       .  S
C361        C365   1.529       .  S
C361        C396   1.465       .  S
C362        C833   1.542   1_455  S
C362        H369   1.084       .  S
C362        C363   1.369       .  D
C363        C836   1.545   1_455  S
C363        C386   1.488       .  S
C364        C835   1.548       .  S
C364        C368   1.540       .  S
C364        C366   1.544       .  S
C364        H370   1.111       .  S
C365        H371   1.085   1_556  S
C365        C366   1.364       .  D
C366        C426   1.486       .  S
C367        H372   1.083       .  S
C367        C368   1.371       .  D
C368        C389   1.501       .  S
C373        C374   1.542       .  S
C373        C379   1.527       .  S
C373        C377   1.534       .  S
C373        C404   1.471       .  S
C374        H381   1.086       .  S
C374        C375   1.374       .  D
C375        C376   1.549       .  S
C375        C385   1.486       .  S
C376        C380   1.545       .  S
C376        C378   1.542       .  S
C376        H382   1.110       .  S
C377        H383   1.086       .  S
C377        C378   1.365       .  D
C378        C421   1.488       .  S
C379        H384   1.087       .  S
C379        C380   1.360       .  D
C380        C390   1.492       .  S
C385        H387   1.087       .  S
C385        C386   1.349       .  D
C386        H388   1.087       .  S
C389        H391   1.084       .  S
C389        C390   1.348       .  D
C390        H392   1.082       .  S
C393        C394   1.203   1_554  T
C394        C395   1.408       .  S
C395        C396   1.204       .  T
C397        C398   1.198       .  T
C399        C400   1.202       .  T
C401        C402   1.208       .  T
C402        C403   1.416       .  S
C403        C404   1.208       .  T
C405        C406   1.206       .  T
C406        C407   1.412       .  S
C407        C408   1.205       .  T
C409        C410   1.205       .  T
C410        C411   1.411       .  S
C411        C412   1.205       .  T
C413        H415   1.085       .  S
C413        C414   1.348       .  D
C414        H416   1.086       .  S
C417        H419   1.086       .  S
C417        C418   1.345       .  D
C418        H420   1.086       .  S
C421        H423   1.083       .  S
C421        C422   1.354       .  D
C422        H424   1.083       .  S
C425        H899   1.084       .  S
C426        H428   1.084       .  S
H427        C897   1.082       .  S
C429        H431   1.085       .  S
C429        C430   1.345       .  D
C430        H432   1.085       .  S
C433        H435   1.084       .  S
C433        C434   1.349       .  D
C434        H436   1.087       .  S
C437        C438   1.206       .  T
C438        C439   1.413       .  S
C439        C440   1.206       .  T
C441        C442   1.204       .  T
C443        C444   1.198       .  T
C445        C446   1.205       .  T
C446        C447   1.412       .  S
C447        C448   1.206       .  T
C449        H451   1.081       .  S
C449        C450   1.353       .  D
C450        H452   1.080       .  S
C453        C454   1.206       .  T
C454        C455   1.412       .  S
C455        C456   1.205       .  T
C457        H931   1.082       .  S
C458        H460   1.083       .  S
H459        C929   1.079       .  S
C461        C462   1.207       .  T
C462        C463   1.414       .  S
C463        C464   1.208       .  T
C465        H467   1.085       .  S
C465        C466   1.346       .  D
C466        H468   1.086       .  S
C469        H471   1.086       .  S
C469        C470   1.345       .  D
C470        H472   1.086       .  S
C473        C479   1.541       .  S
C473        C477   1.532       .  S
C473        C700   1.466       .  S
C474        H481   1.083       .  S
C474        C475   1.369       .  D
C475        C706   1.498       .  S
C476        C480   1.546       .  S
C476        C478   1.542       .  S
C476        H482   1.112       .  S
C477        H483   1.083   1_554  S
C477        C478   1.367       .  D
C478        C693   1.487       .  S
C479        H484   1.085       .  S
C479        C480   1.369       .  D
C480        C702   1.486       .  S
C485        C486   1.527       .  S
C485        C491   1.544       .  S
C485        C489   1.539       .  S
C485        C689   1.475       .  S
C486        H493   1.088       .  S
C486        C487   1.358       .  D
C487        C488   1.544       .  S
C487        C705   1.490       .  S
C488        C492   1.548       .  S
C488        C490   1.541       .  S
C488        H494   1.110       .  S
C489        H495   1.086       .  S
C489        C490   1.369       .  D
C490        C686   1.492       .  S
C491        H496   1.086       .  S
C491        C492   1.375       .  D
C492        C701   1.487       .  S
O497        C500   1.262       .  A
O497       Cd502   2.421       .  S
C498        O507   1.263       .  A
C498        O503   1.260       .  A
C498        C677   1.423       .  S
O499        C505   1.270       .  A
O499       Cd502   2.506       .  S
C500        O508   1.267       .  A
C500        C679   1.431       .  S
C501        O506   1.262       .  A
C501        O504   1.269       .  A
C501        C692   1.443       .  S
Cd502       O509   2.434       .  S
Cd502       O508   2.469       .  S
Cd502       O507   2.427       .  S
Cd502       O503   2.465       .  S
Cd502       O506   2.453       .  S
Cd502       O504   2.507       .  S
C505        O509   1.262       .  A
C505        C681   1.442       .  S
O510        C513   1.263       .  A
C511        O520   1.263   1_455  A
C511        O516   1.262       .  A
C511        C680   1.438   1_455  S
O512       Cd515   2.441       .  S
C513        O521   1.263       .  A
C513        C678   1.417       .  S
C514        O519   1.263       .  A
C514        O517   1.262   1_655  A
C514        C676   1.429       .  S
Cd515       O522   2.482   1_455  S
Cd515       O520   2.455   1_455  S
Cd515       O516   2.508       .  S
Cd515       O519   2.449   1_455  S
Cd515       O517   2.455       .  S
C518        C697   1.431       .  S
C523        C529   1.528       .  S
C523        C527   1.518       .  S
C523        C673   1.465       .  S
C524        H531   1.087       .  S
C524        C525   1.367       .  D
C525        C670   1.486       .  S
C526        C530   1.541       .  S
C526        C528   1.552       .  S
C526        H532   1.111       .  S
C527        H533   1.085   1_554  S
C527        C528   1.369       .  D
C528        C661   1.489       .  S
C529        H534   1.086       .  S
C529        C530   1.369       .  D
C530        C666   1.488       .  S
C535        C536   1.535       .  S
C535        C541   1.528       .  S
C535        C539   1.532       .  S
C535        C684   1.477       .  S
C536        H543   1.086       .  S
C536        C537   1.369       .  D
C537        C538   1.545       .  S
C537        C669   1.486       .  S
C538        C542   1.542       .  S
C538        C540   1.550       .  S
C538        H544   1.110       .  S
C539        H545   1.086       .  S
C539        C540   1.375       .  D
C540        C658   1.493       .  S
C541        H546   1.088       .  S
C541        C542   1.360       .  D
C542        C665   1.481       .  S
C547        C553   1.530       .  S
C547        C551   1.521       .  S
C547        C645   1.471       .  S
C548        H555   1.087       .  S
C548        C549   1.367       .  D
C549        C654   1.483       .  S
C550        C554   1.549       .  S
C550        C552   1.552       .  S
C550        H556   1.109       .  S
C551        H557   1.082       .  S
C551        C552   1.370       .  D
C552        C694   1.487   1_545  S
C553        H558   1.087       .  S
C553        C554   1.365       .  D
C554        C649   1.492       .  S
C559        C560   1.531       .  S
C559        C565   1.534       .  S
C559        C563   1.527       .  S
C559        C641   1.475       .  S
C560        H567   1.087       .  S
C560        C561   1.369       .  D
C561        C562   1.547       .  S
C561        C653   1.487       .  S
C562        C566   1.543       .  S
C562        C564   1.552       .  S
C562        H568   1.111   1_545  S
C563        H569   1.085       .  S
C563        C564   1.372       .  D
C564        C685   1.495   1_545  S
C565        H570   1.086       .  S
C565        C566   1.369       .  D
C566        C650   1.496       .  S
O571        C574   1.261       .  A
O571       Cd576   2.387       .  S
C572        O581   1.265       .  A
C572        O577   1.260       .  A
C572        C633   1.426       .  S
O573        C579   1.268       .  A
O573       Cd576   2.508       .  S
C574        O582   1.267       .  A
C574        C635   1.421       .  S
C575        O580   1.263       .  A
C575        O578   1.265       .  A
C575        C644   1.438       .  S
Cd576       O583   2.445       .  S
Cd576       O582   2.471       .  S
Cd576       O581   2.431       .  S
Cd576       O577   2.473       .  S
Cd576       O580   2.450       .  S
Cd576       O578   2.481       .  S
C579        O583   1.261       .  A
C579        C637   1.441       .  S
O584        C587   1.261   1_455  A
O584       Cd589   2.463       .  S
C585        O594   1.267       .  A
C585        O590   1.262       .  A
C585        C634   1.419       .  S
O586        C592   1.262   1_655  A
O586       Cd589   2.424   1_655  S
C587        O595   1.266       .  A
C587        C636   1.427       .  S
C588        C648   1.434       .  S
Cd589       O596   2.474       .  S
Cd589       O595   2.431   1_455  S
Cd589       O593   2.480       .  S
Cd589       O591   2.434   1_455  S
C592        O596   1.265       .  A
C592        C629   1.430       .  S
C597        C603   1.537   1_455  S
C597        C601   1.523       .  S
C597        C632   1.466       .  S
C598        H605   1.086       .  S
C598        C599   1.370       .  D
C599        C622   1.481       .  S
C600        C604   1.539       .  S
C600        C602   1.546   1_655  S
C600        H606   1.111       .  S
C601        H607   1.085       .  S
C601        C602   1.367       .  D
C602        C662   1.482   1_455  S
C603        H608   1.085       .  S
C603        C604   1.372       .  D
C604        C625   1.494       .  S
C609        C610   1.547       .  S
C609        C615   1.525       .  S
C609        C613   1.535       .  S
C609        C640   1.474       .  S
C610        H617   1.084       .  S
C610        C611   1.376       .  D
C611        C612   1.544       .  S
C611        C621   1.489       .  S
C612        C616   1.546       .  S
C612        C614   1.544       .  S
C612        H618   1.110       .  S
C613        H619   1.085       .  S
C613        C614   1.371       .  D
C614        C657   1.496       .  S
C615        H620   1.088       .  S
C615        C616   1.357       .  D
C616        C626   1.491       .  S
C621        H623   1.087       .  S
C621        C622   1.346       .  D
C622        H624   1.087       .  S
C625        H627   1.084       .  S
C625        C626   1.345       .  D
C626        H628   1.086       .  S
C629        C630   1.203       .  T
C630        C631   1.408       .  S
C631        C632   1.204       .  T
C633        C634   1.198       .  T
C635        C636   1.199       .  T
C637        C638   1.209       .  T
C638        C639   1.418       .  S
C639        C640   1.210       .  T
C641        C642   1.209       .  T
C642        C643   1.417       .  S
C643        C644   1.208       .  T
C645        C646   1.207       .  T
C646        C647   1.413       .  S
C647        C648   1.206       .  T
C649        H651   1.087       .  S
C649        C650   1.348       .  D
C650        H652   1.084       .  S
C653        H655   1.085       .  S
C653        C654   1.346       .  D
C654        H656   1.085       .  S
C657        H659   1.085       .  S
C657        C658   1.352       .  D
C658        H660   1.083       .  S
C661        C898   1.351   1_554  D
C662        H664   1.081       .  S
C662        C897   1.351       .  D
C665        H667   1.086       .  S
C665        C666   1.344       .  D
C666        H668   1.085       .  S
C669        H671   1.086       .  S
C669        C670   1.346       .  D
C670        H672   1.086       .  S
C673        C674   1.203       .  T
C674        C675   1.407       .  S
C675        C676   1.202       .  T
C677        C678   1.196       .  T
C679        C680   1.206       .  T
C681        C682   1.210       .  T
C682        C683   1.420       .  S
C683        C684   1.211       .  T
C685        H687   1.082       .  S
C685        C686   1.353       .  D
C686        H688   1.082       .  S
C689        C690   1.211       .  T
C690        C691   1.420       .  S
C691        C692   1.211       .  T
C693        C930   1.351   1_554  D
C694        H696   1.080       .  S
C694        C929   1.354       .  D
C697        C698   1.204       .  T
C698        C699   1.410       .  S
C699        C700   1.205       .  T
C701        H703   1.087       .  S
C701        C702   1.349       .  D
C702        H704   1.087       .  S
C705        H707   1.083       .  S
C705        C706   1.347       .  D
C706        H708   1.084       .  S
C709        C715   1.533       .  S
C709        C713   1.523       .  S
C709        C936   1.466       .  S
C710        H717   1.087       .  S
C710        C711   1.370       .  D
C711        C942   1.488       .  S
C712        C716   1.538       .  S
C712        C714   1.549       .  S
C712        H718   1.111       .  S
C713        H719   1.084       .  S
C713        C714   1.368       .  D
C714        C929   1.485       .  S
C715        H720   1.086       .  S
C715        C716   1.368       .  D
C716        C938   1.486       .  S
C721        C722   1.534       .  S
C721        C727   1.532       .  S
C721        C725   1.529       .  S
C721        C925   1.473       .  S
C722        H729   1.087       .  S
C722        C723   1.367       .  D
C723        C724   1.542       .  S
C723        C941   1.487       .  S
C724        C728   1.541       .  S
C724        C726   1.550       .  S
C724        H730   1.109       .  S
C725        H731   1.085       .  S
C725        C726   1.372       .  D
C726        C922   1.489       .  S
C727        H732   1.087       .  S
C727        C728   1.363       .  D
C728        C937   1.482       .  S
O733        C736   1.262       .  A
O733       Cd738   2.406       .  S
C734        O743   1.265       .  A
C734        O739   1.260       .  A
C734        C913   1.431       .  S
O735        C741   1.266       .  A
O735       Cd738   2.488       .  S
C736        O744   1.266       .  A
C736        C915   1.421       .  S
C737        O742   1.261       .  A
C737        O740   1.266       .  A
C737        C928   1.439       .  S
Cd738       O745   2.449       .  S
Cd738       O744   2.455       .  S
Cd738       O743   2.454       .  S
Cd738       O739   2.475       .  S
Cd738       O742   2.444       .  S
Cd738       O740   2.504       .  S
C741        O745   1.262       .  A
C741        C917   1.438       .  S
O746        C749   1.261       .  A
C747        O756   1.266   1_455  A
C747        O752   1.260       .  A
C747        C916   1.428       .  S
O748       Cd751   2.505       .  S
C749        O757   1.266       .  A
C749        C914   1.425       .  S
C750        O755   1.262       .  A
C750        O753   1.268   1_655  A
C750        C912   1.434       .  S
Cd751       O758   2.418   1_455  S
Cd751       O756   2.444   1_455  S
Cd751       O752   2.460       .  S
Cd751       O755   2.429   1_455  S
Cd751       O753   2.480       .  S
C754        C933   1.432       .  S
C759        C765   1.531       .  S
C759        C763   1.520       .  S
C759        C909   1.469       .  S
C760        H767   1.087       .  S
C760        C761   1.362       .  D
C761        C906   1.489       .  S
C762        C766   1.544       .  S
C762        C764   1.550       .  S
C762        H768   1.110       .  S
C763        H769   1.082       .  S
C763        C764   1.369       .  D
C764        C897   1.483       .  S
C765        H770   1.086       .  S
C765        C766   1.368       .  D
C766        C902   1.482       .  S
C771        C772   1.531       .  S
C771        C777   1.529       .  S
C771        C775   1.524       .  S
C771        C920   1.474       .  S
C772        H779   1.086       .  S
C772        C773   1.370       .  D
C773        C774   1.544       .  S
C773        C905   1.496       .  S
C774        C778   1.548       .  S
C774        C776   1.553       .  S
C774        H780   1.111       .  S
C775        H781   1.085       .  S
C775        C776   1.372       .  D
C776        C894   1.494       .  S
C777        H782   1.087       .  S
C777        C778   1.366       .  D
C778        C901   1.484       .  S
C783        C789   1.534       .  S
C783        C787   1.523       .  S
C783        C881   1.471       .  S
C784        H791   1.087       .  S
C784        C785   1.367       .  D
C785        C890   1.485       .  S
C786        C790   1.541       .  S
C786        C788   1.550       .  S
C786        H792   1.111       .  S
C787        H793   1.084       .  S
C787        C788   1.371       .  D
C788        C930   1.490   1_545  S
C789        H794   1.086       .  S
C789        C790   1.369       .  D
C790        C885   1.494       .  S
C795        C796   1.533       .  S
C795        C801   1.528       .  S
C795        C799   1.526       .  S
C795        C877   1.473       .  S
C796        H803   1.087       .  S
C796        C797   1.367       .  D
C797        C798   1.542       .  S
C797        C889   1.479       .  S
C798        C802   1.549       .  S
C798        C800   1.552       .  S
C798        H804   1.110       .  S
C799        H805   1.084       .  S
C799        C800   1.373       .  D
C800        C921   1.492   1_545  S
C801        H806   1.087       .  S
C801        C802   1.364       .  D
C802        C886   1.490       .  S
O807        C810   1.266       .  A
O807       Cd812   2.461       .  S
C808        O817   1.259       .  A
C808        O813   1.263       .  A
C808        C869   1.427       .  S
O809        C815   1.269       .  A
O809       Cd812   2.513       .  S
C810        O818   1.264       .  A
C810        C871   1.430       .  S
C811        O816   1.260       .  A
C811        O814   1.266       .  A
C811        C880   1.436       .  S
Cd812       O819   2.447       .  S
Cd812       O818   2.434       .  S
Cd812       O817   2.477       .  S
Cd812       O813   2.446       .  S
Cd812       O816   2.429       .  S
Cd812       O814   2.506       .  S
C815        O819   1.260       .  A
C815        C873   1.442       .  S
O820        C823   1.262   1_655  A
O820       Cd825   2.433   1_655  S
C821        O830   1.268       .  A
C821        O826   1.261       .  A
C821        C870   1.422       .  S
O822        C828   1.261   1_655  A
O822       Cd825   2.443   1_655  S
C823        O831   1.262       .  A
C823        C872   1.434       .  S
C824        C884   1.435       .  S
Cd825       O832   2.487       .  S
Cd825       O831   2.517       .  S
Cd825       O829   2.496       .  S
Cd825       O827   2.435   1_455  S
C828        O832   1.263       .  A
C828        C865   1.432       .  S
C833        C839   1.535       .  S
C833        C837   1.532       .  S
C833        C868   1.468   1_655  S
C834        H841   1.084       .  S
C834        C835   1.368       .  D
C835        C858   1.490       .  S
C836        C840   1.536       .  S
C836        C838   1.541       .  S
C836        H842   1.111       .  S
C837        H843   1.084   1_556  S
C837        C838   1.366       .  D
C838        C898   1.485       .  S
C839        H844   1.084       .  S
C839        C840   1.370       .  D
C840        C861   1.497       .  S
C845        C846   1.544       .  S
C845        C851   1.526       .  S
C845        C849   1.539       .  S
C845        C876   1.474       .  S
C846        H853   1.086       .  S
C846        C847   1.375       .  D
C847        C848   1.549       .  S
C847        C857   1.487       .  S
C848        C852   1.544       .  S
C848        C850   1.542       .  S
C848        H854   1.110       .  S
C849        H855   1.086       .  S
C849        C850   1.368       .  D
C850        C893   1.489       .  S
C851        H856   1.087       .  S
C851        C852   1.358       .  D
C852        C862   1.488       .  S
C857        H859   1.087       .  S
C857        C858   1.351       .  D
C858        H860   1.087       .  S
C861        H863   1.084       .  S
C861        C862   1.346       .  D
C862        H864   1.082       .  S
C865        C866   1.205       .  T
C866        C867   1.411       .  S
C867        C868   1.205       .  T
C869        C870   1.199       .  T
C871        C872   1.204   1_655  T
C873        C874   1.210       .  T
C874        C875   1.418       .  S
C875        C876   1.210       .  T
C877        C878   1.208       .  T
C878        C879   1.415       .  S
C879        C880   1.207       .  T
C881        C882   1.207       .  T
C882        C883   1.413       .  S
C883        C884   1.206       .  T
C885        H887   1.084       .  S
C885        C886   1.347       .  D
C886        H888   1.087       .  S
C889        H891   1.086       .  S
C889        C890   1.347       .  D
C890        H892   1.086       .  S
C893        H895   1.083       .  S
C893        C894   1.353       .  D
C894        H896   1.083       .  S
C898        H900   1.083       .  S
C901        H903   1.085       .  S
C901        C902   1.346       .  D
C902        H904   1.085       .  S
C905        H907   1.085       .  S
C905        C906   1.346       .  D
C906        H908   1.086       .  S
C909        C910   1.206       .  T
C910        C911   1.412       .  S
C911        C912   1.205       .  T
C913        C914   1.202       .  T
C915        C916   1.200   1_655  T
C917        C918   1.208       .  T
C918        C919   1.416       .  S
C919        C920   1.209       .  T
C921        H923   1.083       .  S
C921        C922   1.352       .  D
C922        H924   1.082       .  S
C925        C926   1.208       .  T
C926        C927   1.416       .  S
C927        C928   1.208       .  T
C930        H932   1.084       .  S
C933        C934   1.204       .  T
C934        C935   1.409       .  S
C935        C936   1.205       .  T
C937        H939   1.086       .  S
C937        C938   1.344       .  D
C938        H940   1.085       .  S
C941        H943   1.084       .  S
C941        C942   1.345       .  D
C942        H944   1.085       .  S
