geometry optimzed in LAMMPS
_audit_creation_date              2020-12-01 
_audit_creation_method            'lammps2cif' 
_symmetry_space_group_name_H-M    'P1' 
_symmetry_Int_Tables_number       1 
_symmetry_cell_setting            triclinic 
loop_ 
_symmetry_equiv_pos_as_xyz 
  x,y,z 
_cell_length_a                    35.07202825 
_cell_length_b                    35.08485058005759 
_cell_length_c                    35.09268540710998 
_cell_angle_alpha                 89.9999310947399 
_cell_angle_beta                  90.00296803386637 
_cell_angle_gamma                 90.00010381382972 
loop_ 
_atom_site_label 
_atom_site_type_symbol 
_atom_site_fract_x 
_atom_site_fract_y 
_atom_site_fract_z 
_atom_site_charge 
O1          O  0.64218865  0.78868752  0.07526554    -0.77600
C2          C  0.62379189  0.88113920  0.49126556     0.83400
O3          O  0.72188758  0.88963896  0.10190828    -0.78700
O4          O  0.60950539  0.97076190  0.09377233    -0.80200
O5          O  0.53656572  0.86092603  0.11109465    -0.80000
O6          O  0.60000356  0.79013802  0.12259739    -0.78600
Zn7        Zn  0.64972119  0.84310799  0.05981114     1.55700
O8          O  0.53943721  0.90887829  0.06939091    -0.80000
Cd9        Cd  0.59134228  0.84890075  0.12676293     1.59700
Cd10       Cd  0.66788781  0.90098573  0.12645717     1.59600
O11         O  0.59769163  0.86674104  0.18195346    -0.80000
O12         O  0.62691657  0.87803775  0.09464188    -1.90500
Cd13       Cd  0.59875807  0.91820459  0.06615182     1.59900
O14         O  0.65802094  0.88768433  0.18351882    -0.80000
O15         O  0.61641010  0.91247821  0.00867694    -0.78600
C16         C  0.72987219  0.87251969  0.07061189     0.83900
C17         C  0.62143089  0.77171923  0.09971283     0.83600
O18         O  0.62875068  0.84993478  0.00872619    -0.77600
C19         C  0.52040146  0.88499109  0.08926216     0.84400
O20         O  0.70484875  0.85432498  0.05194143    -0.77700
C21         C  0.62645783  0.87951593  0.19992780     0.84500
C22         C  0.63466897  0.98123043  0.11811539     0.84800
O23         O  0.66059231  0.95890819  0.12999032    -0.80100
O24         O  0.64220405  0.78863108  0.32523904    -0.77600
C25         C  0.62382740  0.88113518  0.24126458     0.83400
O26         O  0.72193446  0.88953242  0.35195927    -0.78700
O27         O  0.60958886  0.97071992  0.34380203    -0.80200
O28         O  0.53661600  0.86083924  0.36108644    -0.80000
O29         O  0.60005948  0.79008059  0.37260640    -0.78600
Zn30       Zn  0.64975761  0.84305698  0.30980601     1.55700
O31         O  0.53948834  0.90883661  0.31943498    -0.80000
Cd32       Cd  0.59139182  0.84883704  0.37676105     1.59700
Cd33       Cd  0.66793719  0.90092548  0.37647800     1.59600
O34         O  0.59770910  0.86668873  0.43194732    -0.80000
O35         O  0.62696749  0.87798506  0.34464985    -1.90500
Cd36       Cd  0.59881069  0.91816595  0.31618127     1.59900
O37         O  0.65802334  0.88767192  0.43354158    -0.80000
O38         O  0.61643001  0.91246079  0.25869535    -0.78600
C39         C  0.72991232  0.87242557  0.32065490     0.83900
C40         C  0.62146337  0.77166268  0.34970301     0.83600
O41         O  0.62882426  0.84992716  0.25870727    -0.77600
C42         C  0.52045238  0.88492556  0.33927711     0.84400
O43         O  0.70488423  0.85425476  0.30196916    -0.77700
C44         C  0.62645344  0.87949545  0.44993279     0.84500
C45         C  0.63477815  0.98118713  0.36811976     0.84800
O46         O  0.66070206  0.95885804  0.37997937    -0.80100
O47         O  0.85674335  0.78857144  0.05084931    -0.77600
C48         C  0.87511783  0.88100844  0.13501878     0.83400
O49         O  0.77703749  0.88951965  0.02441227    -0.78700
O50         O  0.88923322  0.97068550  0.03237324    -0.80200
O51         O  0.96234398  0.86091175  0.01535866    -0.80000
O52         O  0.89894008  0.79014816  0.00352424    -0.78600
Zn53       Zn  0.84921087  0.84298336  0.06646892     1.55700
O54         O  0.95938975  0.90890482  0.05700923    -0.80000
Cd55       Cd  0.90761449  0.84890997  0.49953032     1.59700
Cd56       Cd  0.83099978  0.90074794  0.49977945     1.59600
O57         O  0.90133586  0.86685422  0.44435716    -0.80000
O58         O  0.87198458  0.87794370  0.03165757    -1.90500
Cd59       Cd  0.90004824  0.91817954  0.06013639     1.59900
O60         O  0.84084646  0.88731435  0.44274287    -0.80000
O61         O  0.88238287  0.91238239  0.11761082    -0.78600
C62         C  0.76906285  0.87247886  0.05575110     0.83900
C63         C  0.87749544  0.77166806  0.02634675     0.83600
O64         O  0.87025417  0.84979112  0.11754731    -0.77600
C65         C  0.97846476  0.88498852  0.03721008     0.84400
O66         O  0.79407917  0.85426808  0.07442269    -0.77700
C67         C  0.87248459  0.87939474  0.42635308     0.84500
C68         C  0.86411396  0.98103840  0.00792559     0.84800
O69         O  0.83826122  0.95863916  0.99605485    -0.80100
O70         O  0.85677728  0.78853759  0.30088045    -0.74400
C71         C  0.87513108  0.88102494  0.38501182     0.83400
O72         O  0.77704616  0.88939847  0.27442614    -0.78700
O73         O  0.88917927  0.97064685  0.28232529    -0.80200
O74         O  0.96234233  0.86086797  0.26536565    -0.80000
O75         O  0.89892676  0.79011025  0.25351275    -0.78600
Zn76       Zn  0.84925577  0.84294962  0.31649727     1.55700
O77         O  0.95937740  0.90889054  0.30698339    -0.80000
Cd78       Cd  0.90761635  0.84887066  0.24952725     1.59700
Cd79       Cd  0.83098513  0.90067008  0.24978037     1.59600
O80         O  0.90134171  0.86683835  0.19435888    -0.80000
O81         O  0.87198705  0.87790081  0.28165395    -1.90500
Cd82       Cd  0.90002973  0.91816078  0.31010906     1.59900
O83         O  0.84082923  0.88722978  0.19274976    -0.80000
O84         O  0.88234614  0.91239790  0.36758230    -0.78600
C85         C  0.76909595  0.87239026  0.30578826     0.83900
C86         C  0.87750029  0.77163269  0.27635474     0.83600
O87         O  0.87033520  0.84978585  0.36755944    -0.77600
C88         C  0.97845794  0.88496017  0.28720347     0.84400
O89         O  0.79412984  0.85422203  0.32447684    -0.77700
C90         C  0.87247698  0.87935386  0.17635848     0.84500
C91         C  0.86403799  0.98098287  0.25789314     0.84800
O92         O  0.83819061  0.95856739  0.24604152    -0.80100
O93         O  0.85661457  0.21261886  0.19998820    -0.77600
C94         C  0.87497840  0.12014370  0.11589737     0.83400
O95         O  0.77684818  0.11180026  0.22664512    -0.78700
O96         O  0.88912857  0.03051690  0.21855717    -0.80200
O97         O  0.96220431  0.14027588  0.23564432    -0.80000
O98         O  0.89877652  0.21107759  0.24734340    -0.78600
Zn99       Zn  0.84903972  0.15821035  0.18446567     1.55700
O100        O  0.95927670  0.09223621  0.19404926    -0.80000
Cd101      Cd  0.90745680  0.15231408  0.25137916     1.59700
Cd102      Cd  0.83085143  0.10041143  0.25115636     1.59600
O103        O  0.90119673  0.13439947  0.30655641    -0.80000
O104        O  0.87182804  0.12324396  0.21927110    -1.90500
Cd105      Cd  0.89993625  0.08301720  0.19081378     1.59900
O106        O  0.84076894  0.11376654  0.30819774    -0.80000
O107        O  0.88236245  0.08879968  0.13330991    -0.78600
C108        C  0.76886230  0.12891980  0.19534979     0.83900
C109        C  0.87734695  0.22954020  0.22448898     0.83600
O110        O  0.86994425  0.15133764  0.13335703    -0.77600
C111        C  0.97834126  0.11615357  0.21387276     0.84400
O112        O  0.79389490  0.14706752  0.17664995    -0.77700
C113        C  0.87239600  0.12176627  0.32457027     0.84500
C114        C  0.86399717  0.02013357  0.24297285     0.84800
O115        O  0.83809832  0.04250025  0.25481148    -0.80100
O116        O  0.85677983  0.21266266  0.44998206    -0.77600
C117        C  0.87507213  0.12014233  0.36590801     0.83400
O118        O  0.77698918  0.11182405  0.47651540    -0.78700
O119        O  0.88924582  0.03056192  0.46860129    -0.80200
O120        O  0.96229830  0.14030112  0.48570041    -0.80000
O121        O  0.89887226  0.21111870  0.49740159    -0.78600
Zn122      Zn  0.84921306  0.15825543  0.43443171     1.55700
O123        O  0.95937141  0.09230397  0.44404955    -0.80000
Cd124      Cd  0.90755638  0.15234522  0.00142973     1.59700
Cd125      Cd  0.83095357  0.10046817  0.00110199     1.59600
O126        O  0.90123355  0.13438097  0.05659279    -0.80000
O127        O  0.87195236  0.12329511  0.46927095    -1.90500
Cd128      Cd  0.90003878  0.08305233  0.44082901     1.59900
O129        O  0.84076174  0.11386912  0.05813753    -0.80000
O130        O  0.88238227  0.08879208  0.38334052    -0.78600
C131        C  0.76902488  0.12893532  0.44521188     0.83900
C132        C  0.87747506  0.22958350  0.47451729     0.83600
O133        O  0.87019667  0.15137219  0.38335071    -0.77600
C134        C  0.97843347  0.11620456  0.46390008     0.84400
O135        O  0.79406611  0.14709912  0.42653552    -0.77700
C136        C  0.87237951  0.12179784  0.07455896     0.84500
C137        C  0.86409720  0.02018829  0.49300297     0.84800
O138        O  0.83819108  0.04256138  0.50481035    -0.80100
O139        O  0.64202993  0.21295918  0.17567982    -0.77600
C140        C  0.62363087  0.12053894  0.25977693     0.83400
O141        O  0.72167182  0.11195682  0.14917776    -0.78700
O142        O  0.60950210  0.03083837  0.15730123    -0.80200
O143        O  0.53638306  0.14061382  0.14003294    -0.80000
O144        O  0.59978556  0.21145968  0.12839040    -0.78600
Zn145      Zn  0.64954200  0.15854365  0.19123848     1.55700
O146        O  0.53935579  0.09265881  0.18173265    -0.80000
Cd147      Cd  0.59113180  0.15269333  0.12427817     1.59700
Cd148      Cd  0.66771213  0.10072525  0.12457677     1.59600
O149        O  0.59750204  0.13483260  0.06908348    -0.80000
O150        O  0.62674374  0.12361271  0.15640668    -1.90500
Cd151      Cd  0.59868192  0.08339840  0.18490892     1.59900
O152        O  0.65791447  0.11412833  0.06754692    -0.80000
O153        O  0.61635565  0.08917386  0.24236630    -0.78600
C154        C  0.72966710  0.12899527  0.18051028     0.83900
C155        C  0.62124922  0.22990171  0.15122617     0.83600
O156        O  0.62848264  0.15175888  0.24231037    -0.77600
C157        C  0.52027248  0.11654313  0.16188662     0.84400
O158        O  0.70467033  0.14722321  0.19918988    -0.77700
C159        C  0.62633138  0.12218124  0.05112136     0.84500
C160        C  0.63463172  0.02042965  0.13289758     0.84800
O161        O  0.66045972  0.04281782  0.12095375    -0.80100
O162        O  0.64219421  0.21292327  0.42568676    -0.77600
C163        C  0.62374002  0.12052595  0.00978540     0.83400
O164        O  0.72181918  0.11197295  0.39903734    -0.78700
O165        O  0.60964778  0.03080007  0.40731808    -0.80200
O166        O  0.53648596  0.14058868  0.39009952    -0.80000
O167        O  0.59988412  0.21142851  0.37845846    -0.78600
Zn168      Zn  0.64971224  0.15850387  0.44121202     1.55700
O169        O  0.53947206  0.09257928  0.43172944    -0.80000
Cd170      Cd  0.59122870  0.15267145  0.37433401     1.59700
Cd171      Cd  0.66781877  0.10069531  0.37451233     1.59600
O172        O  0.59752678  0.13485930  0.31912485    -0.80000
O173        O  0.62687706  0.12357130  0.40640327    -1.90500
Cd174      Cd  0.59880741  0.08336031  0.43491334     1.59900
O175        O  0.65790440  0.11406339  0.31748196    -0.80000
O176        O  0.61640557  0.08916618  0.49238668    -0.78600
C177        C  0.72983024  0.12900396  0.43037196     0.83900
C178        C  0.62137773  0.22986731  0.40126509     0.83600
O179        O  0.62872269  0.15171712  0.49230806    -0.77600
C180        C  0.52038032  0.11648236  0.41191818     0.84400
O181        O  0.70483709  0.14719771  0.44908576    -0.77700
C182        C  0.62630524  0.12217057  0.30111076     0.84500
C183        C  0.63476025  0.02038928  0.38289735     0.84800
O184        O  0.66057800  0.04277767  0.37092694    -0.80100
O185        O  0.12859054  0.84966716  0.11768551    -0.77600
C186        C  0.12142986  0.77155470  0.02647442     0.83400
O187        O  0.22187598  0.88931493  0.02456129    -0.78700
O188        O  0.09761600  0.86672516  0.44448329    -0.80200
O189        O  0.03955353  0.90883872  0.05707892    -0.80000
O190        O  0.11658534  0.91227796  0.11772846    -0.78600
Zn191      Zn  0.14966882  0.84285926  0.06662265     1.55700
O192        O  0.03658164  0.86084976  0.01542232    -0.80000
Cd193      Cd  0.09890053  0.91805263  0.06025944     1.59700
Cd194      Cd  0.16793603  0.90060097  0.49991901     1.59600
O195        O  0.10973793  0.97054548  0.03252542    -0.80000
O196        O  0.12694027  0.87781290  0.03178188    -1.90500
Cd197      Cd  0.09131100  0.84879035  0.49964939     1.59900
O198        O  0.16069439  0.95850287  0.99618973    -0.80000
O199        O  0.09998727  0.79003008  0.00364526    -0.78600
C200        C  0.22982487  0.87229477  0.05591780     0.83900
C201        C  0.12380540  0.88090146  0.13514761     0.83600
O202        O  0.14216158  0.78845845  0.05099505    -0.77600
C203        C  0.02046864  0.88494639  0.03724090     0.84400
O204        O  0.20478940  0.85412972  0.07460390    -0.77700
C205        C  0.13484870  0.98090246  0.00807808     0.84500
C206        C  0.12648104  0.87924026  0.42648961     0.84800
O207        O  0.15811981  0.88714034  0.44288883    -0.80100
O208        O  0.12873117  0.84966066  0.36768834    -0.77600
C209        C  0.12143810  0.77152836  0.27648163     0.83400
O210        O  0.22189854  0.88937253  0.27454256    -0.78700
O211        O  0.09762973  0.86667766  0.19448532    -0.80200
O212        O  0.03954347  0.90881279  0.30707983    -0.80000
O213        O  0.11654228  0.91223990  0.36773964    -0.78600
Zn214      Zn  0.14972283  0.84283587  0.31659501     1.55700
O215        O  0.03658320  0.86082509  0.26542346    -0.80000
Cd216      Cd  0.09888830  0.91802925  0.31026795     1.59700
Cd217      Cd  0.16793651  0.90064126  0.24992037     1.59600
O218        O  0.10970123  0.97054421  0.28256195    -0.80000
O219        O  0.12695544  0.87780496  0.28178274    -1.90500
Cd220      Cd  0.09132176  0.84876585  0.24965863     1.59900
O221        O  0.16067200  0.95854293  0.24623446    -0.80000
O222        O  0.09998764  0.79000560  0.25366267    -0.78600
C223        C  0.22986827  0.87229738  0.30586485     0.83900
C224        C  0.12384382  0.88087841  0.38515179     0.83600
O225        O  0.14218670  0.78843153  0.30098850    -0.77600
C226        C  0.02046324  0.88492036  0.28723955     0.84400
O227        O  0.20484925  0.85408294  0.32452267    -0.77700
C228        C  0.13481255  0.98092448  0.25812523     0.84500
C229        C  0.12646192  0.87926291  0.17648642     0.84800
O230        O  0.15808752  0.88723292  0.19287837    -0.80100
O231        O  0.37020369  0.84977980  0.00891030    -0.77600
C232        C  0.37745054  0.77161251  0.09992189     0.83400
O233        O  0.27695974  0.88935759  0.10213912    -0.78700
O234        O  0.40122164  0.86662998  0.18212094    -0.80200
O235        O  0.45930481  0.90886687  0.06948986    -0.80000
O236        O  0.38232257  0.91236235  0.00885405    -0.78600
Zn237      Zn  0.34916580  0.84297571  0.05998122     1.55700
O238        O  0.46229508  0.86088502  0.11115507    -0.80000
Cd239      Cd  0.39997475  0.91811715  0.06632171     1.59700
Cd240      Cd  0.33093630  0.90077196  0.12667846     1.59600
O241        O  0.38914228  0.97065659  0.09393091    -0.80000
O242        O  0.37191857  0.87790607  0.09483261    -1.90500
Cd243      Cd  0.40754920  0.84880593  0.12692104     1.59900
O244        O  0.33812178  0.95870881  0.13020775    -0.80000
O245        O  0.39890195  0.79004111  0.12278066    -0.78600
C246        C  0.26900527  0.87232121  0.07079046     0.83900
C247        C  0.37506818  0.88099448  0.49144197     0.83600
O248        O  0.35667896  0.78856794  0.07547766    -0.77600
C249        C  0.47839749  0.88496910  0.08931215     0.84400
O250        O  0.29405073  0.85420756  0.05207332    -0.77700
C251        C  0.36398080  0.98108203  0.11829184     0.84500
C252        C  0.37243982  0.87934054  0.20011461     0.84800
O253        O  0.34085277  0.88745903  0.18372500    -0.80100
O254        O  0.37023075  0.84974722  0.25890637    -0.77600
C255        C  0.37747997  0.77156019  0.34993346     0.83400
O256        O  0.27700933  0.88939422  0.35206817    -0.78700
O257        O  0.40122063  0.86660097  0.43213281    -0.80200
O258        O  0.45936164  0.90879289  0.31948957    -0.80000
O259        O  0.38236896  0.91232763  0.25886872    -0.78600
Zn260      Zn  0.34920381  0.84292662  0.30998015     1.55700
O261        O  0.46233973  0.86083118  0.36117955    -0.80000
Cd262      Cd  0.40003996  0.91806418  0.31632748     1.59700
Cd263      Cd  0.33098077  0.90076927  0.37664079     1.59600
O264        O  0.38924861  0.97061446  0.34393272    -0.80000
O265        O  0.37196485  0.87786056  0.34482999    -1.90500
Cd266      Cd  0.40758209  0.84875708  0.37693646     1.59900
O267        O  0.33819316  0.95870044  0.38016652    -0.80000
O268        O  0.39892617  0.78998839  0.37279811    -0.78600
C269        C  0.26904955  0.87232075  0.32074086     0.83900
C270        C  0.37509237  0.88096923  0.24144884     0.83600
O271        O  0.35671945  0.78851707  0.32547979    -0.77600
C272        C  0.47844833  0.88490255  0.33932654     0.84400
O273        O  0.29408561  0.85415596  0.30206042    -0.77700
C274        C  0.36407600  0.98105694  0.36827374     0.84500
C275        C  0.37243819  0.87934423  0.45010563     0.84800
O276        O  0.34086490  0.88747642  0.43369608    -0.80100
O277        O  0.36983760  0.15158165  0.24243285    -0.77600
C278        C  0.37727765  0.22980014  0.15137144     0.83400
O279        O  0.27682310  0.11183193  0.14915805    -0.78700
O280        O  0.40105896  0.13478425  0.06920559    -0.80200
O281        O  0.45922279  0.09261968  0.18175887    -0.80000
O282        O  0.38228919  0.08905750  0.24246649    -0.78600
Zn283      Zn  0.34893428  0.15842820  0.19130831     1.55700
O284        O  0.46211957  0.14060427  0.14009607    -0.80000
Cd285      Cd  0.39989786  0.08331884  0.18499153     1.59700
Cd286      Cd  0.33082231  0.10054945  0.12463209     1.59600
O287        O  0.38910837  0.03074842  0.15741419    -0.80000
O288        O  0.37176049  0.12349236  0.15649516    -1.90500
Cd289      Cd  0.40735854  0.15261615  0.12439343     1.59900
O290        O  0.33808289  0.04262929  0.12112045    -0.80000
O291        O  0.39870961  0.21136253  0.12851189    -0.78600
C292        C  0.26882149  0.12891210  0.18046799     0.83900
C293        C  0.37487205  0.12038333  0.25988577     0.83600
O294        O  0.35649878  0.21285533  0.17582295    -0.77600
C295        C  0.47827012  0.11652334  0.16191782     0.84400
O296        O  0.29381343  0.14714879  0.19914111    -0.77700
C297        C  0.36395917  0.02028682  0.13305306     0.84500
C298        C  0.37231407  0.12200819  0.05120113     0.84800
O299        O  0.34073383  0.11383721  0.06757535    -0.80100
O300        O  0.37017720  0.15159389  0.49240484    -0.77600
C301        C  0.37741099  0.22973760  0.40134643     0.83400
O302        O  0.27695630  0.11179020  0.39933399    -0.78700
O303        O  0.40109137  0.13467427  0.31918577    -0.80200
O304        O  0.45932613  0.09257671  0.43181912    -0.80000
O305        O  0.38228071  0.08900685  0.49246256    -0.78600
Zn306      Zn  0.34911795  0.15838605  0.44134186     1.55700
O307        O  0.46222685  0.14048958  0.39007039    -0.80000
Cd308      Cd  0.39999454  0.08326527  0.43501517     1.59700
Cd309      Cd  0.33090461  0.10052440  0.37470142     1.59600
O310        O  0.38921359  0.03070685  0.40741155    -0.80000
O311        O  0.37188422  0.12344247  0.40650812    -1.90500
Cd312      Cd  0.40746839  0.15252928  0.37436773     1.59900
O313        O  0.33818986  0.04260921  0.37112212    -0.80000
O314        O  0.39883819  0.21129144  0.37848420    -0.78600
C315        C  0.26898817  0.12886463  0.43065547     0.83900
C316        C  0.37500405  0.12036991  0.00987072     0.83600
O317        O  0.35664303  0.21279932  0.42580911    -0.77600
C318        C  0.47837588  0.11644881  0.41193699     0.84400
O319        O  0.29400172  0.14709880  0.44930541    -0.77700
C320        C  0.36406608  0.02025923  0.38304258     0.84500
C321        C  0.37227227  0.12200266  0.30122325     0.84800
O322        O  0.34069806  0.11391311  0.31765049    -0.80100
O323        O  0.12829046  0.15129841  0.13363374    -0.77600
C324        C  0.12126163  0.22944137  0.22478328     0.83400
O325        O  0.22174140  0.11181904  0.22671381    -0.78700
O326        O  0.09748335  0.13424157  0.30683950    -0.80200
O327        O  0.03943483  0.09219387  0.19415521    -0.80000
O328        O  0.11651772  0.08864881  0.13360732    -0.78600
Zn329      Zn  0.14944723  0.15812278  0.18465970     1.55700
O330        O  0.03644892  0.14018286  0.23581461    -0.80000
Cd331      Cd  0.09877650  0.08291325  0.19106376     1.59700
Cd332      Cd  0.16782612  0.10040307  0.25136728     1.59600
O333        O  0.10961119  0.03043742  0.21883879    -0.80000
O334        O  0.12679218  0.12317111  0.21953829    -1.90500
Cd335      Cd  0.09117137  0.15220410  0.25167012     1.59900
O336        O  0.16065951  0.04248264  0.25505179    -0.80000
O337        O  0.09985378  0.21097880  0.24765604    -0.78600
C338        C  0.22964449  0.12883903  0.19534371     0.83900
C339        C  0.12363288  0.12004252  0.11617777     0.83600
O340        O  0.14195541  0.21251916  0.20025009    -0.77600
C341        C  0.02034553  0.11610940  0.21394489     0.84400
O342        O  0.20456292  0.14692369  0.17664205    -0.77700
C343        C  0.13478221  0.02008201  0.24322815     0.84500
C344        C  0.12635462  0.12170829  0.32481940     0.84800
O345        O  0.15798553  0.11380850  0.30840721    -0.80100
O346        O  0.12863967  0.15128514  0.38361911    -0.77600
C347        C  0.12138839  0.22947258  0.47476736     0.83400
O348        O  0.22186308  0.11177250  0.47687358    -0.78700
O349        O  0.09752709  0.13433286  0.05682251    -0.80200
O350        O  0.03951617  0.09222449  0.44419678    -0.80000
O351        O  0.11648240  0.08870289  0.38358455    -0.78600
Zn352      Zn  0.14963676  0.15813552  0.43470833     1.55700
O353        O  0.03654579  0.14026285  0.48579620    -0.80000
Cd354      Cd  0.09884857  0.08294391  0.44106699     1.59700
Cd355      Cd  0.16789576  0.10036441  0.00142551     1.59600
O356        O  0.10967413  0.03044127  0.46879989    -0.80000
O357        O  0.12690329  0.12318254  0.46954694    -1.90500
Cd358      Cd  0.09127880  0.15225563  0.00164397     1.59900
O359        O  0.16071815  0.04244634  0.50503225    -0.80000
O360        O  0.09996409  0.21101701  0.49762586    -0.78600
C361        C  0.22980964  0.12882083  0.44552962     0.83900
C362        C  0.12374722  0.12006614  0.36616108     0.83600
O363        O  0.14210810  0.21254424  0.45025866    -0.77600
C364        C  0.02043516  0.11616402  0.46395922     0.84400
O365        O  0.20475827  0.14693642  0.42682041    -0.77700
C366        C  0.13483811  0.02006208  0.49318662     0.84500
C367        C  0.12632187  0.12168324  0.07484101     0.84800
O368        O  0.15794856  0.11367108  0.05847547    -0.80100
O369        O  0.86994909  0.34971442  0.13350470    -0.77600
C370        C  0.87733177  0.27147500  0.22453255     0.83400
O371        O  0.77691423  0.38948576  0.22675195    -0.78700
O372        O  0.90113419  0.36648379  0.30673266    -0.80200
O373        O  0.95933942  0.40866947  0.19420692    -0.80000
O374        O  0.88240441  0.41224030  0.13347146    -0.78600
Zn375      Zn  0.84901256  0.34287450  0.18461045     1.55700
O376        O  0.96221777  0.36067725  0.23586361    -0.80000
Cd377      Cd  0.90001353  0.41798652  0.19096083     1.59700
Cd378      Cd  0.83092144  0.40074262  0.25128640     1.59600
O379        O  0.88924568  0.47055461  0.21860004    -0.80000
O380        O  0.87186195  0.37779856  0.21943114    -1.90500
Cd381      Cd  0.90744752  0.34865299  0.25153736     1.59900
O382        O  0.83820038  0.45865580  0.25485188    -0.80000
O383        O  0.89877944  0.28990167  0.24739169    -0.78600
C384        C  0.76889620  0.37241097  0.19544217     0.83900
C385        C  0.87498754  0.38091119  0.11605154     0.83600
O386        O  0.85655325  0.28843467  0.20008875    -0.77600
C387        C  0.97837885  0.38475821  0.21406175     0.84400
O388        O  0.79388176  0.35417364  0.17676058    -0.77700
C389        C  0.86409446  0.48100130  0.24296746     0.84500
C390        C  0.87238891  0.37927131  0.32472777     0.84800
O391        O  0.84081307  0.38744111  0.30834192    -0.80100
O392        O  0.87018675  0.34970229  0.38352760    -0.77600
C393        C  0.87745207  0.27152125  0.47456037     0.83400
O394        O  0.77701092  0.38950230  0.47664089    -0.78700
O395        O  0.90117669  0.36657713  0.05674654    -0.80200
O396        O  0.95941171  0.40871223  0.44415809    -0.80000
O397        O  0.88238483  0.41227477  0.38347192    -0.78600
Zn398      Zn  0.84914915  0.34289989  0.43459486     1.55700
O399        O  0.96229780  0.36077094  0.48587535    -0.80000
Cd400      Cd  0.90007545  0.41803002  0.44094044     1.59700
Cd401      Cd  0.83098703  0.40075675  0.00124199     1.59600
O402        O  0.88930129  0.47058966  0.46859501    -0.80000
O403        O  0.87195194  0.37783721  0.46942457    -1.90500
Cd404      Cd  0.90754012  0.34872499  0.00155767     1.59900
O405        O  0.83826471  0.45866803  0.50485241    -0.80000
O406        O  0.89889069  0.28995975  0.49742114    -0.78600
C407        C  0.76901802  0.37242973  0.44532378     0.83900
C408        C  0.87506495  0.38091711  0.36606209     0.83600
O409        O  0.85667684  0.28847136  0.45010806    -0.77600
C410        C  0.97845574  0.38482315  0.46404044     0.84400
O411        O  0.79402012  0.35419618  0.42665840    -0.77700
C412        C  0.86415168  0.48102314  0.49297024     0.84500
C413        C  0.87237588  0.37928188  0.07471300     0.84800
O414        O  0.84080092  0.38738434  0.05829148    -0.80100
O415        O  0.87023394  0.65150962  0.11725597    -0.77600
C416        C  0.87749582  0.72972992  0.02627480     0.83400
O417        O  0.77702371  0.61184903  0.02407673    -0.78700
O418        O  0.90124886  0.63469701  0.44404010    -0.80200
O419        O  0.95940294  0.59247422  0.05666971    -0.80000
O420        O  0.88240318  0.58893288  0.11729607    -0.78600
Zn421      Zn  0.84920864  0.65833682  0.06618302     1.55700
O422        O  0.96236800  0.64044184  0.01498650    -0.80000
Cd423      Cd  0.90007666  0.58319097  0.05982624     1.59700
Cd424      Cd  0.83101023  0.60049433  0.49950928     1.59600
O425        O  0.88931907  0.53064694  0.03215163    -0.80000
O426        O  0.87199117  0.62340708  0.03133619    -1.90500
Cd427      Cd  0.90760596  0.65253313  0.49924545     1.59900
O428        O  0.83825265  0.54256754  0.99593263    -0.80000
O429        O  0.89895108  0.71130830  0.00341476    -0.78600
C430        C  0.76905073  0.62893152  0.05539659     0.83900
C431        C  0.87511666  0.62029208  0.13471530     0.83600
O432        O  0.85672330  0.71276121  0.05070969    -0.77600
C433        C  0.97848457  0.61635473  0.03683645     0.84400
O434        O  0.79408209  0.64710263  0.07408157    -0.77700
C435        C  0.86415638  0.52021473  0.00778935     0.84500
C436        C  0.87248041  0.62193049  0.42605707     0.84800
O437        O  0.84090507  0.61378968  0.44245586    -0.80100
O438        O  0.87025439  0.65149116  0.36725216    -0.77600
C439        C  0.87748919  0.72969547  0.27627734     0.83400
O440        O  0.77701151  0.61186406  0.27404659    -0.78700
O441        O  0.90124527  0.63467497  0.19404106    -0.80200
O442        O  0.95937971  0.59244313  0.30666285    -0.80000
O443        O  0.88238709  0.58890905  0.36730361    -0.78600
Zn444      Zn  0.84920547  0.65830298  0.31618701     1.55700
O445        O  0.96234658  0.64041795  0.26498748    -0.80000
Cd446      Cd  0.90005215  0.58315804  0.30982699     1.59700
Cd447      Cd  0.83099521  0.60048743  0.24949516     1.59600
O448        O  0.88926980  0.53061856  0.28214863    -0.80000
O449        O  0.87197622  0.62337730  0.28133429    -1.90500
Cd450      Cd  0.90759065  0.65250135  0.24924611     1.59900
O451        O  0.83821623  0.54255906  0.24591535    -0.80000
O452        O  0.89893914  0.71127343  0.25341372    -0.78600
C453        C  0.76904399  0.62891706  0.30538308     0.83900
C454        C  0.87512302  0.62027623  0.38471884     0.83600
O455        O  0.85671578  0.71272769  0.30071222    -0.77600
C456        C  0.97846150  0.61632940  0.28683535     0.84400
O457        O  0.79408132  0.64705696  0.32409127    -0.77700
C458        C  0.86410747  0.52019584  0.25778076     0.84500
C459        C  0.87247115  0.62193250  0.17605226     0.84800
O460        O  0.84089145  0.61380106  0.19244662    -0.80100
O461        O  0.62874121  0.65165228  0.00842286    -0.77600
C462        C  0.62141861  0.72978572  0.09963149     0.83400
O463        O  0.72187062  0.61187279  0.10156594    -0.78700
O464        O  0.59762313  0.63465560  0.18163292    -0.80200
O465        O  0.53947472  0.59254137  0.06904962    -0.80000
O466        O  0.61647858  0.58908620  0.00837513    -0.78600
Zn467      Zn  0.64971874  0.65847415  0.05952687     1.55700
O468        O  0.53654471  0.64049655  0.11074386    -0.80000
Cd469      Cd  0.59881772  0.58330607  0.06584227     1.59700
Cd470      Cd  0.66789379  0.60064955  0.12618122     1.59600
O471        O  0.60961029  0.53078034  0.09353711    -0.80000
O472        O  0.62691723  0.62351203  0.09432697    -1.90500
Cd473      Cd  0.59129477  0.65255570  0.12646175     1.59900
O474        O  0.66059275  0.54275675  0.12986085    -0.80000
O475        O  0.59995690  0.71131138  0.12244241    -0.78600
C476        C  0.72985989  0.62896446  0.07025847     0.83900
C477        C  0.62382253  0.62043718  0.49096184     0.83600
O478        O  0.64217826  0.71288097  0.07513850    -0.77600
C479        C  0.52040868  0.61640892  0.08891745     0.84400
O480        O  0.70485410  0.64721171  0.05161066    -0.77700
C481        C  0.63472391  0.52038675  0.11796804     0.84500
C482        C  0.62645224  0.62204947  0.19962330     0.84800
O483        O  0.65806659  0.61405709  0.18322452    -0.80100
O484        O  0.62866348  0.65162639  0.25842767    -0.77600
C485        C  0.62144427  0.72973099  0.34961812     0.83400
O486        O  0.72187832  0.61190700  0.35157882    -0.78700
O487        O  0.59761831  0.63461770  0.43162662    -0.80200
O488        O  0.53949948  0.59248408  0.31903966    -0.80000
O489        O  0.61652105  0.58904010  0.25836968    -0.78600
Zn490      Zn  0.64970620  0.65842098  0.30950555     1.55700
O491        O  0.53655975  0.64044682  0.36072555    -0.80000
Cd492      Cd  0.59884700  0.58325953  0.31583655     1.59700
Cd493      Cd  0.66791117  0.60065813  0.37619332     1.59600
O494        O  0.60966730  0.53075208  0.34354732    -0.80000
O495        O  0.62692635  0.62347328  0.34432303    -1.90500
Cd496      Cd  0.59130241  0.65250965  0.37645184     1.59900
O497        O  0.66062866  0.54276238  0.37989352    -0.80000
O498        O  0.59997544  0.71126105  0.37242814    -0.78600
C499        C  0.72985337  0.62894694  0.32023996     0.83900
C500        C  0.62380630  0.62040626  0.24096022     0.83600
O501        O  0.64219928  0.71282402  0.32512572    -0.77600
C502        C  0.52042899  0.61635404  0.33890216     0.84400
O503        O  0.70483347  0.64713917  0.30155670    -0.77700
C504        C  0.63477570  0.52037739  0.36799189     0.84500
C505        C  0.62646505  0.62206431  0.44962420     0.84800
O506        O  0.65808949  0.61410665  0.43322830    -0.80100
O507        O  0.62844183  0.34998572  0.24238466    -0.77600
C508        C  0.62124556  0.27183772  0.15124710     0.83400
O509        O  0.72175494  0.38955206  0.14926074    -0.78700
O510        O  0.59749481  0.36700418  0.06916876    -0.80200
O511        O  0.53939734  0.40905255  0.18185562    -0.80000
O512        O  0.61645161  0.41259752  0.24242759    -0.78600
Zn513      Zn  0.64951215  0.34315629  0.19132641     1.55700
O514        O  0.53643681  0.36110286  0.14015232    -0.80000
Cd515      Cd  0.59873555  0.41834297  0.18496802     1.59700
Cd516      Cd  0.66780203  0.40092890  0.12465625     1.59600
O517        O  0.60953960  0.47084240  0.15722642    -0.80000
O518        O  0.62679053  0.37811245  0.15648317    -1.90500
Cd519      Cd  0.59116881  0.34907362  0.12434193     1.59900
O520        O  0.66058773  0.45884034  0.12100431    -0.80000
O521        O  0.59982775  0.29030166  0.12838223    -0.78600
C522        C  0.72970309  0.37247904  0.18059068     0.83900
C523        C  0.62366284  0.38121969  0.25984640     0.83600
O524        O  0.64197224  0.28875824  0.17575525    -0.77600
C525        C  0.52031948  0.38514860  0.16202409     0.84400
O526        O  0.70464925  0.35434269  0.19927816    -0.77700
C527        C  0.63470224  0.48122178  0.13284144     0.84500
C528        C  0.62634851  0.37958305  0.05119679     0.84800
O529        O  0.65796221  0.38754105  0.06761503    -0.80100
O530        O  0.62867718  0.35000319  0.49240448    -0.77600
C531        C  0.62136958  0.27180032  0.40128594     0.83400
O532        O  0.72185159  0.38954533  0.39914725    -0.78700
O533        O  0.59753564  0.36690301  0.31918383    -0.80200
O534        O  0.53946358  0.40901530  0.43180949    -0.80000
O535        O  0.61642834  0.41256878  0.49243215    -0.78600
Zn536      Zn  0.64965099  0.34314357  0.44131130     1.55700
O537        O  0.53651779  0.36101245  0.39016895    -0.80000
Cd538      Cd  0.59879360  0.41830893  0.43495252     1.59700
Cd539      Cd  0.66786080  0.40092857  0.37461654     1.59600
O540        O  0.60959746  0.47081870  0.40723380    -0.80000
O541        O  0.62687969  0.37808607  0.40647878    -1.90500
Cd542      Cd  0.59125606  0.34900755  0.37436767     1.59900
O543        O  0.66065931  0.45884207  0.37102257    -0.80000
O544        O  0.59993696  0.29025112  0.37842532    -0.78600
C545        C  0.72982477  0.37247543  0.43047285     0.83900
C546        C  0.62374543  0.38121726  0.00985723     0.83600
O547        O  0.64210432  0.28873188  0.42577827    -0.77600
C548        C  0.52039352  0.38508542  0.41200696     0.84400
O549        O  0.70478737  0.35433925  0.44917998    -0.77700
C550        C  0.63476683  0.48121291  0.38286253     0.84500
C551        C  0.62632975  0.37957483  0.30118289     0.84800
O552        O  0.65793976  0.38761841  0.31756638    -0.80100
O553        O  0.14219544  0.71265539  0.05085510    -0.77600
C554        C  0.12385523  0.62015246  0.13482554     0.83400
O555        O  0.22195015  0.61179152  0.02420491    -0.78700
O556        O  0.10964310  0.53055500  0.03227683    -0.80200
O557        O  0.03664145  0.64039541  0.01501821    -0.80000
O558        O  0.10005033  0.71119784  0.00348517    -0.78600
Zn559      Zn  0.14973300  0.65823166  0.06630740     1.55700
O560        O  0.03954116  0.59243462  0.05671283    -0.80000
Cd561      Cd  0.09140765  0.65243264  0.49932804     1.59700
Cd562      Cd  0.16797899  0.60036503  0.49964146     1.59600
O563        O  0.09775685  0.63459263  0.44414154    -0.80000
O564        O  0.12699070  0.62329636  0.03144256    -1.90500
Cd565      Cd  0.09887087  0.58310249  0.05992108     1.59900
O566        O  0.15807403  0.61361136  0.44256888    -0.80000
O567        O  0.11655376  0.58880429  0.11739413    -0.78600
C568        C  0.22989718  0.62887676  0.05553026     0.83900
C569        C  0.12145507  0.72962091  0.02639079     0.83600
O570        O  0.12872353  0.65137813  0.11737825    -0.77600
C571        C  0.02049121  0.61633773  0.03685086     0.84400
O572        O  0.20484978  0.64702515  0.07421020    -0.77700
C573        C  0.12650813  0.62178991  0.42616570     0.84500
C574        C  0.13484767  0.52009248  0.00797482     0.84800
O575        O  0.16077842  0.54242642  0.99614076    -0.80100
O576        O  0.14221471  0.71262552  0.30084666    -0.77600
C577        C  0.12385315  0.62014976  0.38483033     0.83400
O578        O  0.22193426  0.61169412  0.27421238    -0.78700
O579        O  0.10957077  0.53053585  0.28229844    -0.80200
O580        O  0.03662004  0.64036362  0.26501003    -0.80000
O581        O  0.10003499  0.71117429  0.25350661    -0.78600
Zn582      Zn  0.14974580  0.65820051  0.31629821     1.55700
O583        O  0.03951355  0.59242899  0.30673463    -0.80000
Cd584      Cd  0.09139212  0.65240969  0.24933138     1.59700
Cd585      Cd  0.16794821  0.60031863  0.24964472     1.59600
O586        O  0.09775467  0.63458987  0.19413758    -0.80000
O587        O  0.12697098  0.62326924  0.28144826    -1.90500
Cd588      Cd  0.09883596  0.58309106  0.30993946     1.59900
O589        O  0.15806180  0.61357968  0.19257108    -0.80000
O590        O  0.11652051  0.58880227  0.36741046    -0.78600
C591        C  0.22989890  0.62879665  0.30552437     0.83900
C592        C  0.12145804  0.72959417  0.27639869     0.83600
O593        O  0.12875140  0.65136506  0.36737388    -0.77600
C594        C  0.02046691  0.61631741  0.28685428     0.84400
O595        O  0.20486470  0.64697617  0.32419230    -0.77700
C596        C  0.12650403  0.62178007  0.17616307     0.84500
C597        C  0.13475359  0.52006606  0.25797757     0.84800
O598        O  0.16068876  0.54238854  0.24613185    -0.80100
O599        O  0.14208629  0.28831762  0.20037690    -0.77600
C600        C  0.12374935  0.38075642  0.11629099     0.83400
O601        O  0.22176433  0.38932566  0.22686492    -0.78700
O602        O  0.10959072  0.47045079  0.21878859    -0.80200
O603        O  0.03648241  0.36069959  0.23601255    -0.80000
O604        O  0.09984013  0.28982602  0.24765817    -0.78600
Zn605      Zn  0.14960670  0.34273673  0.18482786     1.55700
O606        O  0.03947774  0.40861477  0.19426820    -0.80000
Cd607      Cd  0.09122456  0.34859712  0.25178436     1.59700
Cd608      Cd  0.16781866  0.40057483  0.25149446     1.59600
O609        O  0.09761363  0.36642966  0.30698316    -0.80000
O610        O  0.12684464  0.37767676  0.21966961    -1.90500
Cd611      Cd  0.09880682  0.41789461  0.19114931     1.59900
O612        O  0.15800655  0.38719635  0.30853533    -0.80000
O613        O  0.11653225  0.41213338  0.13370385    -0.78600
C614        C  0.22973374  0.37228705  0.19552501     0.83900
C615        C  0.12129457  0.27137830  0.22482014     0.83600
O616        O  0.12852481  0.34952557  0.13375976    -0.77600
C617        C  0.02038317  0.38475364  0.21411832     0.84400
O618        O  0.20472408  0.35405873  0.17686098    -0.77700
C619        C  0.12642821  0.37910902  0.32495295     0.84500
C620        C  0.13472659  0.48086713  0.24318548     0.84800
O621        O  0.16057396  0.45848808  0.25510881    -0.80100
O622        O  0.14222232  0.28834917  0.45037532    -0.77600
C623        C  0.12381599  0.38076179  0.36628947     0.83400
O624        O  0.22187783  0.38929443  0.47694883    -0.78700
O625        O  0.10970697  0.47047511  0.46877792    -0.80200
O626        O  0.03655727  0.36072210  0.48595295    -0.80000
O627        O  0.09992512  0.28985021  0.49760966    -0.78600
Zn628      Zn  0.14972654  0.34276698  0.43483977     1.55700
O629        O  0.03956546  0.40868176  0.44426525    -0.80000
Cd630      Cd  0.09130203  0.34861488  0.00173901     1.59700
Cd631      Cd  0.16791264  0.40058946  0.00153362     1.59600
O632        O  0.09763732  0.36642303  0.05694735    -0.80000
O633        O  0.12694479  0.37770611  0.46966965    -1.90500
Cd634      Cd  0.09890388  0.41792288  0.44114638     1.59900
O635        O  0.15801305  0.38723395  0.05857564    -0.80000
O636        O  0.11658160  0.41213922  0.38369377    -0.78600
C637        C  0.22985139  0.37226968  0.44560054     0.83900
C638        C  0.12141044  0.27140717  0.47479616     0.83600
O639        O  0.12866716  0.34954740  0.38376559    -0.77600
C640        C  0.02046262  0.38480602  0.46408676     0.84400
O641        O  0.20483768  0.35407943  0.42690803    -0.77700
C642        C  0.12641969  0.37912013  0.07495466     0.84500
C643        C  0.13483439  0.48089212  0.49318312     0.84800
O644        O  0.16067658  0.45851235  0.50512099    -0.80100
O645        O  0.35657822  0.28866069  0.17589801    -0.77600
C646        C  0.37497523  0.38109140  0.25999359     0.83400
O647        O  0.27685651  0.38942637  0.14931569    -0.78700
O648        O  0.38908949  0.47072860  0.15742908    -0.80200
O649        O  0.46219182  0.36100669  0.14025929    -0.80000
O650        O  0.39877516  0.29017921  0.12857820    -0.78600
Zn651      Zn  0.34908591  0.34305969  0.19145209     1.55700
O652        O  0.45923957  0.40899364  0.18191736    -0.80000
Cd653      Cd  0.40744977  0.34893656  0.12451906     1.59700
Cd654      Cd  0.33083116  0.40085171  0.12475901     1.59600
O655        O  0.40114693  0.36679621  0.06933637    -0.80000
O656        O  0.37182332  0.37801114  0.15661540    -1.90500
Cd657      Cd  0.39989867  0.41822006  0.18511247     1.59900
O658        O  0.34074705  0.38752254  0.06770427    -0.80000
O659        O  0.38224221  0.41245867  0.24258161    -0.78600
C660        C  0.26891326  0.37236104  0.18065227     0.83900
C661        C  0.37731556  0.27173020  0.15141278     0.83600
O662        O  0.37011143  0.34987363  0.24252759    -0.77600
C663        C  0.47831531  0.38511246  0.16207776     0.84400
O664        O  0.29397116  0.35425324  0.19935877    -0.77700
C665        C  0.37235513  0.37945957  0.05132678     0.84500
C666        C  0.36394099  0.48113799  0.13304431     0.84800
O667        O  0.33804814  0.45877779  0.12117434    -0.80100
O668        O  0.35672983  0.28859691  0.42589623    -0.77600
C669        C  0.37503386  0.38107878  0.00999008     0.83400
O670        O  0.27696599  0.38941264  0.39939801    -0.78700
O671        O  0.38918946  0.47067828  0.40740703    -0.80200
O672        O  0.46226886  0.36096968  0.39020592    -0.80000
O673        O  0.39886668  0.29012693  0.37852106    -0.78600
Zn674      Zn  0.34920988  0.34299605  0.44146521     1.55700
O675        O  0.45931772  0.40891772  0.43191351    -0.80000
Cd676      Cd  0.40752570  0.34889387  0.37447249     1.59700
Cd677      Cd  0.33091347  0.40080260  0.37479486     1.59600
O678        O  0.40117514  0.36679524  0.31930203    -0.80000
O679        O  0.37192065  0.37795065  0.40661287    -1.90500
Cd680      Cd  0.39998343  0.41816954  0.43510189     1.59900
O681        O  0.34075233  0.38746070  0.31774259    -0.80000
O682        O  0.38227398  0.41244102  0.49256109    -0.78600
C683        C  0.26903007  0.37233071  0.43072562     0.83900
C684        C  0.37744243  0.27167091  0.40138248     0.83600
O685        O  0.37024666  0.34983746  0.49254024    -0.77600
C686        C  0.47839130  0.38505218  0.41204929     0.84400
O687        O  0.29408643  0.35418623  0.44940149    -0.77700
C688        C  0.37235115  0.37944121  0.30132959     0.84500
C689        C  0.36403004  0.48108471  0.38303252     0.84800
O690        O  0.33813268  0.45872221  0.37118095    -0.80100
O691        O  0.35671703  0.71277006  0.07535731    -0.77600
C692        C  0.37506927  0.62031894  0.49121977     0.83400
O693        O  0.27700741  0.61192799  0.10179748    -0.78700
O694        O  0.38912655  0.53068426  0.09379843    -0.80200
O695        O  0.46230155  0.64043179  0.11086702    -0.80000
O696        O  0.39891015  0.71121381  0.12269055    -0.78600
Zn697      Zn  0.34922311  0.65836691  0.05973593     1.55700
O698        O  0.45931064  0.59246489  0.06918513    -0.80000
Cd699      Cd  0.40757883  0.65246036  0.12670827     1.59700
Cd700      Cd  0.33094252  0.60062045  0.12644124     1.59600
O701        O  0.40126913  0.63455675  0.18188513    -0.80000
O702        O  0.37194098  0.62342422  0.09459070    -1.90500
Cd703      Cd  0.39996596  0.58319082  0.06609460     1.59900
O704        O  0.34080650  0.61400643  0.18348517    -0.80000
O705        O  0.38224050  0.58893710  0.00864647    -0.78600
C706        C  0.26907107  0.62891928  0.07042141     0.83900
C707        C  0.37746187  0.72968098  0.09986210     0.83600
O708        O  0.37033262  0.65156244  0.00867780    -0.77600
C709        C  0.47840344  0.61637505  0.08899343     0.84400
O710        O  0.29411243  0.64707214  0.05173152    -0.77700
C711        C  0.37243068  0.62197671  0.19987991     0.84500
C712        C  0.36397360  0.52030953  0.11819472     0.84800
O713        O  0.33812858  0.54270873  0.13008200    -0.80100
O714        O  0.35671635  0.71271994  0.32538699    -0.77600
C715        C  0.37508363  0.62032324  0.24121696     0.83400
O716        O  0.27702556  0.61182411  0.35177410    -0.78700
O717        O  0.38917060  0.53063376  0.34375849    -0.80200
O718        O  0.46232130  0.64035728  0.36086916    -0.80000
O719        O  0.39894424  0.71115484  0.37268869    -0.78600
Zn720      Zn  0.34922550  0.65832080  0.30975084     1.55700
O721        O  0.45933251  0.59242411  0.31914881    -0.80000
Cd722      Cd  0.40759985  0.65239647  0.37670879     1.59700
Cd723      Cd  0.33096816  0.60055445  0.37643376     1.59600
O724        O  0.40127821  0.63450381  0.43188768    -0.80000
O725        O  0.37196078  0.62336903  0.34458517    -1.90500
Cd726      Cd  0.39998912  0.58315084  0.31606492     1.59900
O727        O  0.34080873  0.61397275  0.43347795    -0.80000
O728        O  0.38225523  0.58893036  0.25862198    -0.78600
C729        C  0.26907892  0.62883394  0.32040988     0.83900
C730        C  0.37748205  0.72962707  0.34987642     0.83600
O731        O  0.37034758  0.65155570  0.25869560    -0.77600
C732        C  0.47842419  0.61631724  0.33897701     0.84400
O733        O  0.29411277  0.64701362  0.30173479    -0.77700
C734        C  0.37242942  0.62194446  0.44988004     0.84500
C735        C  0.36404472  0.52025597  0.36818158     0.84800
O736        O  0.33820586  0.54265022  0.38009263    -0.80100
O737        O  0.64218851  0.78868796  0.57526470    -0.77600
C738        C  0.62379227  0.88113807  0.99126544     0.83400
O739        O  0.72188714  0.88963724  0.60190771    -0.78700
O740        O  0.60950559  0.97076193  0.59377390    -0.80200
O741        O  0.53656630  0.86092575  0.61109465    -0.80000
O742        O  0.60000437  0.79013824  0.62259737    -0.78600
Zn743      Zn  0.64971977  0.84310855  0.55981021     1.55700
O744        O  0.53943775  0.90887832  0.56939116    -0.80000
Cd745      Cd  0.59134279  0.84890074  0.62676308     1.59700
Cd746      Cd  0.66788804  0.90098516  0.62645736     1.59600
O747        O  0.59769162  0.86674098  0.68195347    -0.80000
O748        O  0.62691655  0.87803802  0.59464197    -1.90500
Cd749      Cd  0.59875859  0.91820534  0.56615228     1.59900
O750        O  0.65802110  0.88768364  0.68351908    -0.80000
O751        O  0.61641204  0.91247969  0.50867745    -0.78600
C752        C  0.72987105  0.87251920  0.57061038     0.83900
C753        C  0.62143133  0.77171958  0.59971231     0.83600
O754        O  0.62874700  0.84993526  0.50872612    -0.77600
C755        C  0.52040206  0.88499100  0.58926231     0.84400
O756        O  0.70484700  0.85432598  0.55193925    -0.77700
C757        C  0.62645784  0.87951553  0.69992795     0.84500
C758        C  0.63466949  0.98123027  0.61811664     0.84800
O759        O  0.66059322  0.95890802  0.62999080    -0.80100
O760        O  0.64220229  0.78863089  0.82523985    -0.77600
C761        C  0.62382718  0.88113468  0.74126472     0.83400
O762        O  0.72193386  0.88953046  0.85195981    -0.78700
O763        O  0.60959097  0.97071993  0.84380223    -0.80200
O764        O  0.53661548  0.86083864  0.86108632    -0.80000
O765        O  0.60005862  0.79008069  0.87260801    -0.78600
Zn766      Zn  0.64975673  0.84305617  0.80980622     1.55700
O767        O  0.53948815  0.90883683  0.81943573    -0.80000
Cd768      Cd  0.59139117  0.84883704  0.87676152     1.59700
Cd769      Cd  0.66793690  0.90092346  0.87647850     1.59600
O770        O  0.59770796  0.86668986  0.93194733    -0.80000
O771        O  0.62696689  0.87798453  0.84464993    -1.90500
Cd772      Cd  0.59881070  0.91816614  0.81618153     1.59900
O773        O  0.65802382  0.88766820  0.93354152    -0.80000
O774        O  0.61642998  0.91246035  0.75869552    -0.78600
C775        C  0.72991172  0.87242397  0.82065538     0.83900
C776        C  0.62146207  0.77166268  0.84970423     0.83600
O777        O  0.62882363  0.84992656  0.75870735    -0.77600
C778        C  0.52045202  0.88492530  0.83927722     0.84400
O779        O  0.70488361  0.85425334  0.80196936    -0.77700
C780        C  0.62645336  0.87949421  0.94993276     0.84500
C781        C  0.63478032  0.98118622  0.86812036     0.84800
O782        O  0.66070286  0.95885601  0.87998087    -0.80100
O783        O  0.85674223  0.78857145  0.55084893    -0.77600
C784        C  0.87511648  0.88100833  0.63501914     0.83400
O785        O  0.77703608  0.88951733  0.52440982    -0.78700
O786        O  0.88922925  0.97068568  0.53237322    -0.80200
O787        O  0.96234279  0.86091143  0.51535918    -0.80000
O788        O  0.89893884  0.79014828  0.50352372    -0.78600
Zn789      Zn  0.84920991  0.84298335  0.56646881     1.55700
O790        O  0.95938803  0.90890556  0.55700856    -0.80000
Cd791      Cd  0.90761533  0.84890996  0.99953057     1.59700
Cd792      Cd  0.83100092  0.90074938  0.99978107     1.59600
O793        O  0.90133559  0.86685440  0.94435782    -0.80000
O794        O  0.87198340  0.87794361  0.53165708    -1.90500
Cd795      Cd  0.90004623  0.91817981  0.56013626     1.59900
O796        O  0.84084660  0.88731601  0.94274433    -0.80000
O797        O  0.88238164  0.91238217  0.61761104    -0.78600
C798        C  0.76906158  0.87247794  0.55574949     0.83900
C799        C  0.87749415  0.77166816  0.52634630     0.83600
O800        O  0.87025242  0.84979104  0.61754771    -0.77600
C801        C  0.97846327  0.88498878  0.53721030     0.84400
O802        O  0.79407812  0.85426839  0.57442200    -0.77700
C803        C  0.87248435  0.87939570  0.92635418     0.84500
C804        C  0.86411016  0.98103778  0.50792495     0.84800
O805        O  0.83825871  0.95863764  0.49605322    -0.80100
O806        O  0.85677732  0.78853810  0.80088236    -0.74400
C807        C  0.87513047  0.88102586  0.88501301     0.83400
O808        O  0.77704538  0.88939720  0.77442670    -0.78700
O809        O  0.88917832  0.97064713  0.78232542    -0.80200
O810        O  0.96234139  0.86086879  0.76536666    -0.80000
O811        O  0.89892589  0.79011084  0.75351384    -0.78600
Zn812      Zn  0.84925568  0.84294995  0.81649884     1.55700
O813        O  0.95937655  0.90889116  0.80698470    -0.80000
Cd814      Cd  0.90761549  0.84887123  0.74952803     1.59700
Cd815      Cd  0.83098426  0.90066982  0.74978137     1.59600
O816        O  0.90134096  0.86683884  0.69435935    -0.80000
O817        O  0.87198643  0.87790124  0.78165509    -1.90500
Cd818      Cd  0.90002884  0.91816156  0.81011011     1.59900
O819        O  0.84082833  0.88722967  0.69275056    -0.80000
O820        O  0.88234499  0.91239892  0.86758335    -0.78600
C821        C  0.76909533  0.87238911  0.80578887     0.83900
C822        C  0.87749990  0.77163326  0.77635626     0.83600
O823        O  0.87033495  0.84978667  0.86756080    -0.77600
C824        C  0.97845703  0.88496091  0.78720457     0.84400
O825        O  0.79412952  0.85422176  0.82447800    -0.77700
C826        C  0.87247596  0.87935392  0.67635902     0.84500
C827        C  0.86403697  0.98098297  0.75789332     0.84800
O828        O  0.83818934  0.95856742  0.74604215    -0.80100
O829        O  0.85661260  0.21261967  0.69998765    -0.77600
C830        C  0.87497683  0.12014347  0.61589795     0.83400
O831        O  0.77684786  0.11180188  0.72664579    -0.78700
O832        O  0.88912872  0.03051738  0.71855831    -0.80200
O833        O  0.96220403  0.14027785  0.73564390    -0.80000
O834        O  0.89877559  0.21107895  0.74734189    -0.78600
Zn835      Zn  0.84903943  0.15821058  0.68446558     1.55700
O836        O  0.95927651  0.09223737  0.69404973    -0.80000
Cd837      Cd  0.90745652  0.15231575  0.75137828     1.59700
Cd838      Cd  0.83085139  0.10041169  0.75115685     1.59600
O839        O  0.90119780  0.13440202  0.80655570    -0.80000
O840        O  0.87182785  0.12324444  0.71927144    -1.90500
Cd841      Cd  0.89993594  0.08301750  0.69081428     1.59900
O842        O  0.84077175  0.11376402  0.80819884    -0.80000
O843        O  0.88236018  0.08879938  0.63331067    -0.78600
C844        C  0.76886224  0.12891998  0.69534949     0.83900
C845        C  0.87734552  0.22954128  0.72448816     0.83600
O846        O  0.86994509  0.15133793  0.63335740    -0.77600
C847        C  0.97834107  0.11615495  0.71387279     0.84400
O848        O  0.79389511  0.14706647  0.67664889    -0.77700
C849        C  0.87239882  0.12176611  0.82457036     0.84500
C850        C  0.86399624  0.02013370  0.74297278     0.84800
O851        O  0.83809667  0.04250014  0.75481021    -0.80100
O852        O  0.85678765  0.21266255  0.94998246    -0.77600
C853        C  0.87507702  0.12014206  0.86590805     0.83400
O854        O  0.77699607  0.11182399  0.97651244    -0.78700
O855        O  0.88925093  0.03056172  0.96860153    -0.80200
O856        O  0.96230450  0.14029975  0.98570060    -0.80000
O857        O  0.89887919  0.21111785  0.99740281    -0.78600
Zn858      Zn  0.84922073  0.15825544  0.93443104     1.55700
O859        O  0.95937737  0.09230371  0.94404833    -0.80000
Cd860      Cd  0.90755006  0.15234610  0.50142910     1.59700
Cd861      Cd  0.83094762  0.10046706  0.50110330     1.59600
O862        O  0.90122852  0.13438294  0.55659244    -0.80000
O863        O  0.87195904  0.12329511  0.96927057    -1.90500
Cd864      Cd  0.90004445  0.08305178  0.94082862     1.59900
O865        O  0.84075841  0.11386621  0.55813915    -0.80000
O866        O  0.88238535  0.08879136  0.88334054    -0.78600
C867        C  0.76903236  0.12893479  0.94520866     0.83900
C868        C  0.87748106  0.22958303  0.97451667     0.83600
O869        O  0.87020601  0.15137258  0.88335078    -0.77600
C870        C  0.97843956  0.11620438  0.96389983     0.84400
O871        O  0.79407389  0.14709897  0.92653286    -0.77700
C872        C  0.87237613  0.12179737  0.57455951     0.84500
C873        C  0.86410213  0.02018886  0.99300342     0.84800
O874        O  0.83819668  0.04256266  0.00481073    -0.80100
O875        O  0.64203159  0.21296010  0.67568037    -0.77600
C876        C  0.62363243  0.12053935  0.75977666     0.83400
O877        O  0.72167170  0.11195846  0.64917655    -0.78700
O878        O  0.60950148  0.03083893  0.65730112    -0.80200
O879        O  0.53638265  0.14061584  0.64003326    -0.80000
O880        O  0.59978578  0.21146116  0.62839231    -0.78600
Zn881      Zn  0.64954203  0.15854416  0.69123845     1.55700
O882        O  0.53935527  0.09266027  0.68173237    -0.80000
Cd883      Cd  0.59113149  0.15269525  0.62427918     1.59700
Cd884      Cd  0.66771154  0.10072500  0.62457642     1.59600
O885        O  0.59750062  0.13483569  0.56908413    -0.80000
O886        O  0.62674347  0.12361340  0.65640652    -1.90500
Cd887      Cd  0.59868159  0.08339922  0.68490883     1.59900
O888        O  0.65791071  0.11412458  0.56754570    -0.80000
O889        O  0.61635703  0.08917430  0.74236593    -0.78600
C890        C  0.72966690  0.12899560  0.68050990     0.83900
C891        C  0.62125036  0.22990288  0.65122749     0.83600
O892        O  0.62848253  0.15175959  0.74231025    -0.77600
C893        C  0.52027201  0.11654485  0.66188644     0.84400
O894        O  0.70467001  0.14722252  0.69919029    -0.77700
C895        C  0.62632785  0.12218073  0.55112114     0.84500
C896        C  0.63463226  0.02042955  0.63289894     0.84800
O897        O  0.66046111  0.04281723  0.62095617    -0.80100
O898        O  0.64220255  0.21292323  0.92568679    -0.77600
C899        C  0.62373431  0.12052562  0.50978525     0.83400
O900        O  0.72182616  0.11197170  0.89903438    -0.78700
O901        O  0.60965243  0.03080006  0.90731886    -0.80200
O902        O  0.53649228  0.14058977  0.89010039    -0.80000
O903        O  0.59989140  0.21142896  0.87845949    -0.78600
Zn904      Zn  0.64972045  0.15850356  0.94121110     1.55700
O905        O  0.53947824  0.09257936  0.93172903    -0.80000
Cd906      Cd  0.59123521  0.15267226  0.87433505     1.59700
Cd907      Cd  0.66782444  0.10069410  0.87451107     1.59600
O908        O  0.59753178  0.13486118  0.81912560    -0.80000
O909        O  0.62688387  0.12357111  0.90640310    -1.90500
Cd910      Cd  0.59881334  0.08336080  0.93491330     1.59900
O911        O  0.65790792  0.11406118  0.81748049    -0.80000
O912        O  0.61640914  0.08916694  0.99238707    -0.78600
C913        C  0.72983787  0.12900331  0.93036849     0.83900
C914        C  0.62138552  0.22986749  0.90126558     0.83600
O915        O  0.62873320  0.15171661  0.99230807    -0.77600
C916        C  0.52038656  0.11648282  0.91191827     0.84400
O917        O  0.70484508  0.14719734  0.94908255    -0.77700
C918        C  0.62630875  0.12217054  0.80111044     0.84500
C919        C  0.63476404  0.02038852  0.88289758     0.84800
O920        O  0.66058201  0.04277626  0.87092635    -0.80100
O921        O  0.12859030  0.84966715  0.61768599    -0.77600
C922        C  0.12142871  0.77155492  0.52647497     0.83400
O923        O  0.22187470  0.88931830  0.52456373    -0.78700
O924        O  0.09761629  0.86672483  0.94448238    -0.80200
O925        O  0.03955180  0.90883850  0.55708003    -0.80000
O926        O  0.11658334  0.91227770  0.61772900    -0.78600
Zn927      Zn  0.14966822  0.84285926  0.56662315     1.55700
O928        O  0.03658046  0.86085023  0.51542272    -0.80000
Cd929      Cd  0.09889852  0.91805259  0.56026023     1.59700
Cd930      Cd  0.16793744  0.90059948  0.99991752     1.59600
O931        O  0.10973451  0.97054578  0.53252644    -0.80000
O932        O  0.12693917  0.87781326  0.53178293    -1.90500
Cd933      Cd  0.09131187  0.84878979  0.99964848     1.59900
O934        O  0.16069072  0.95850425  0.49619012    -0.80000
O935        O  0.09998619  0.79003050  0.50364608    -0.78600
C936        C  0.22982407  0.87229643  0.55591916     0.83900
C937        C  0.12380431  0.88090137  0.63514802     0.83600
O938        O  0.14216065  0.78845858  0.55099568    -0.77600
C939        C  0.02046716  0.88494644  0.53724141     0.84400
O940        O  0.20478905  0.85412944  0.57460410    -0.77700
C941        C  0.13484463  0.98090327  0.50807863     0.84500
C942        C  0.12648112  0.87924017  0.92648847     0.84800
O943        O  0.15812007  0.88714003  0.94288730    -0.80100
O944        O  0.12872999  0.84966092  0.86768703    -0.77600
C945        C  0.12143758  0.77152909  0.77648022     0.83400
O946        O  0.22189751  0.88937447  0.77454244    -0.78700
O947        O  0.09762806  0.86667938  0.69448570    -0.80200
O948        O  0.03954282  0.90881374  0.80708013    -0.80000
O949        O  0.11654224  0.91224041  0.86773885    -0.78600
Zn950      Zn  0.14972224  0.84283642  0.81659385     1.55700
O951        O  0.03658205  0.86082579  0.76542414    -0.80000
Cd952      Cd  0.09888771  0.91803009  0.81026732     1.59700
Cd953      Cd  0.16793557  0.90064178  0.74991948     1.59600
O954        O  0.10970049  0.97054519  0.78256116    -0.80000
O955        O  0.12695457  0.87780561  0.78178206    -1.90500
Cd956      Cd  0.09132034  0.84876668  0.74965857     1.59900
O957        O  0.16066975  0.95854320  0.74623179    -0.80000
O958        O  0.09998669  0.79000642  0.75366197    -0.78600
C959        C  0.22986742  0.87229905  0.80586453     0.83900
C960        C  0.12384336  0.88087865  0.88515070     0.83600
O961        O  0.14218666  0.78843213  0.80098700    -0.77600
C962        C  0.02046235  0.88492116  0.78724029     0.84400
O963        O  0.20484857  0.85408398  0.82452202    -0.77700
C964        C  0.13481092  0.98092505  0.75812340     0.84500
C965        C  0.12646087  0.87926289  0.67648664     0.84800
O966        O  0.15808709  0.88723118  0.69287829    -0.80100
O967        O  0.37020114  0.84978046  0.50891082    -0.77600
C968        C  0.37745075  0.77161283  0.59992255     0.83400
O969        O  0.27695969  0.88936052  0.60213943    -0.78700
O970        O  0.40122162  0.86663059  0.68212102    -0.80200
O971        O  0.45930559  0.90886708  0.56949044    -0.80000
O972        O  0.38232479  0.91236225  0.50885427    -0.78600
Zn973      Zn  0.34916493  0.84297599  0.55998229     1.55700
O974        O  0.46229566  0.86088511  0.61115546    -0.80000
Cd975      Cd  0.39997580  0.91811767  0.56632219     1.59700
Cd976      Cd  0.33093683  0.90077334  0.62667845     1.59600
O977        O  0.38914355  0.97065763  0.59393101    -0.80000
O978        O  0.37191890  0.87790666  0.59483288    -1.90500
Cd979      Cd  0.40754968  0.84880644  0.62692126     1.59900
O980        O  0.33812360  0.95870983  0.63020857    -0.80000
O981        O  0.39890226  0.79004155  0.62278118    -0.78600
C982        C  0.26900456  0.87232276  0.57079177     0.83900
C983        C  0.37506792  0.88099427  0.99144155     0.83600
O984        O  0.35667894  0.78856820  0.57547849    -0.77600
C985        C  0.47839814  0.88496909  0.58931258     0.84400
O986        O  0.29404953  0.85420750  0.55207544    -0.77700
C987        C  0.36398248  0.98108301  0.61829239     0.84500
C988        C  0.37243974  0.87934122  0.70011460     0.84800
O989        O  0.34085277  0.88745987  0.68372489    -0.80100
O990        O  0.37022984  0.84974787  0.75890622    -0.77600
C991        C  0.37747872  0.77156008  0.84993233     0.83400
O992        O  0.27700876  0.88939628  0.85206759    -0.78700
O993        O  0.40121935  0.86659999  0.93213218    -0.80200
O994        O  0.45936156  0.90879230  0.81948898    -0.80000
O995        O  0.38236917  0.91232810  0.75886862    -0.78600
Zn996      Zn  0.34920269  0.84292713  0.80997981     1.55700
O997        O  0.46233908  0.86083098  0.86117943    -0.80000
Cd998      Cd  0.40004020  0.91806414  0.81632716     1.59700
Cd999      Cd  0.33098048  0.90077091  0.87664038     1.59600
O1000       O  0.38925069  0.97061440  0.84393279    -0.80000
O1001       O  0.37196416  0.87786094  0.84482963    -1.90500
Cd1002     Cd  0.40758099  0.84875676  0.87693581     1.59900
O1003       O  0.33819443  0.95870210  0.88016598    -0.80000
O1004       O  0.39892497  0.78998811  0.87279709    -0.78600
C1005       C  0.26904875  0.87232244  0.82074051     0.83900
C1006       C  0.37509212  0.88096981  0.74144874     0.83600
O1007       O  0.35671821  0.78851718  0.82547882    -0.77600
C1008       C  0.47844801  0.88490213  0.83932636     0.84400
O1009       O  0.29408460  0.85415706  0.80206030    -0.77700
C1010       C  0.36407830  0.98105768  0.86827366     0.84500
C1011       C  0.37243748  0.87934425  0.95010514     0.84800
O1012       O  0.34086447  0.88747788  0.93369574    -0.80100
O1013       O  0.36983368  0.15158276  0.74243412    -0.77600
C1014       C  0.37727870  0.22980128  0.65137012     0.83400
O1015       O  0.27682290  0.11182991  0.64916047    -0.78700
O1016       O  0.40105571  0.13478250  0.56920454    -0.80200
O1017       O  0.45922246  0.09262173  0.68175908    -0.80000
O1018       O  0.38229125  0.08905969  0.74246754    -0.78600
Zn1019     Zn  0.34893366  0.15843047  0.69130824     1.55700
O1020       O  0.46211889  0.14060457  0.64009429    -0.80000
Cd1021     Cd  0.39989783  0.08332074  0.68499226     1.59700
Cd1022     Cd  0.33082144  0.10054972  0.62463348     1.59600
O1023       O  0.38910895  0.03074960  0.65741557    -0.80000
O1024       O  0.37175973  0.12349374  0.65649568    -1.90500
Cd1025     Cd  0.40735737  0.15261615  0.62439194     1.59900
O1026       O  0.33808450  0.04263013  0.62112031    -0.80000
O1027       O  0.39870897  0.21136312  0.62850939    -0.78600
C1028       C  0.26882096  0.12891374  0.68046819     0.83900
C1029       C  0.37487218  0.12038498  0.75988687     0.83600
O1030       O  0.35650081  0.21285697  0.67582285    -0.77600
C1031       C  0.47826962  0.11652469  0.66191716     0.84400
O1032       O  0.29381227  0.14715357  0.69913905    -0.77700
C1033       C  0.36396058  0.02028788  0.63305358     0.84500
C1034       C  0.37230897  0.12200856  0.55120141     0.84800
O1035       O  0.34072901  0.11383978  0.56757716    -0.80100
O1036       O  0.37019075  0.15159494  0.99240487    -0.77600
C1037       C  0.37741869  0.22973772  0.90134590     0.83400
O1038       O  0.27696339  0.11179183  0.89933898    -0.78700
O1039       O  0.40109570  0.13467309  0.81918571    -0.80200
O1040       O  0.45933240  0.09257701  0.93181924    -0.80000
O1041       O  0.38228492  0.08900620  0.99246208    -0.78600
Zn1042     Zn  0.34912681  0.15838659  0.94134373     1.55700
O1043       O  0.46223320  0.14048915  0.89006950    -0.80000
Cd1044     Cd  0.40000077  0.08326496  0.93501511     1.59700
Cd1045     Cd  0.33091003  0.10052608  0.87470387     1.59600
O1046       O  0.38921864  0.03070682  0.90741093    -0.80000
O1047       O  0.37189115  0.12344298  0.90650889    -1.90500
Cd1048     Cd  0.40747466  0.15252896  0.87436712     1.59900
O1049       O  0.33819411  0.04261078  0.87112320    -0.80000
O1050       O  0.39884501  0.21129128  0.87848317    -0.78600
C1051       C  0.26899635  0.12886528  0.93066121     0.83900
C1052       C  0.37499640  0.12036991  0.50987092     0.83600
O1053       O  0.35665149  0.21279965  0.92580958    -0.77600
C1054       C  0.47838215  0.11644886  0.91193672     0.84400
O1055       O  0.29401055  0.14709903  0.94931082    -0.77700
C1056       C  0.36407004  0.02025995  0.88304276     0.84500
C1057       C  0.37227468  0.12200415  0.80122445     0.84800
O1058       O  0.34070058  0.11391698  0.81765306    -0.80100
O1059       O  0.12829380  0.15129945  0.63363281    -0.77600
C1060       C  0.12126015  0.22944242  0.72478431     0.83400
O1061       O  0.22174091  0.11181732  0.72671197    -0.78700
O1062       O  0.09748590  0.13424032  0.80684053    -0.80200
O1063       O  0.03943453  0.09219575  0.69415490    -0.80000
O1064       O  0.11651536  0.08865082  0.63360629    -0.78600
Zn1065     Zn  0.14944744  0.15812478  0.68465991     1.55700
O1066       O  0.03644898  0.14018327  0.73581600    -0.80000
Cd1067     Cd  0.09877591  0.08291492  0.69106308     1.59700
Cd1068     Cd  0.16782630  0.10040308  0.75136579     1.59600
O1069       O  0.10961027  0.03043830  0.71883670    -0.80000
O1070       O  0.12679223  0.12317234  0.71953784    -1.90500
Cd1071     Cd  0.09117189  0.15220414  0.75167145     1.59900
O1072       O  0.16065781  0.04248313  0.75505089    -0.80000
O1073       O  0.09985374  0.21097936  0.74765802    -0.78600
C1074       C  0.22964439  0.12884071  0.69534396     0.83900
C1075       C  0.12363256  0.12004413  0.61617686     0.83600
O1076       O  0.14195313  0.21252062  0.70025009    -0.77600
C1077       C  0.02034535  0.11611085  0.71394551     0.84400
O1078       O  0.20456346  0.14692817  0.67664424    -0.77700
C1079       C  0.13478079  0.02008267  0.74322647     0.84500
C1080       C  0.12635866  0.12170841  0.82481907     0.84800
O1081       O  0.15798912  0.11381011  0.80840542    -0.80100
O1082       O  0.12865136  0.15128396  0.88361903    -0.77600
C1083       C  0.12139642  0.22947219  0.97476564     0.83400
O1084       O  0.22187046  0.11177303  0.97687906    -0.78700
O1085       O  0.09752307  0.13433216  0.55682274    -0.80200
O1086       O  0.03952239  0.09222391  0.94419693    -0.80000
O1087       O  0.11648632  0.08870311  0.88358401    -0.78600
Zn1088     Zn  0.14964520  0.15813490  0.93470966     1.55700
O1089       O  0.03655185  0.14026337  0.98579492    -0.80000
Cd1090     Cd  0.09885478  0.08294385  0.94106692     1.59700
Cd1091     Cd  0.16789005  0.10036553  0.50142347     1.59600
O1092       O  0.10967973  0.03044102  0.96879937    -0.80000
O1093       O  0.12691000  0.12318197  0.96954741    -1.90500
Cd1094     Cd  0.09127281  0.15225562  0.50164471     1.59900
O1095       O  0.16072377  0.04244494  0.00503222    -0.80000
O1096       O  0.09997019  0.21101662  0.99762518    -0.78600
C1097       C  0.22981782  0.12882155  0.94553535     0.83900
C1098       C  0.12375371  0.12006587  0.86616080     0.83600
O1099       O  0.14211538  0.21254385  0.95025908    -0.77600
C1100       C  0.02044128  0.11616343  0.96395814     0.84400
O1101       O  0.20476679  0.14693641  0.92682514    -0.77700
C1102       C  0.13484340  0.02006126  0.99318622     0.84500
C1103       C  0.12631962  0.12168486  0.57484008     0.84800
O1104       O  0.15794620  0.11367494  0.55847328    -0.80100
O1105       O  0.86995246  0.34971539  0.63350552    -0.77600
C1106       C  0.87733018  0.27147606  0.72453139     0.83400
O1107       O  0.77691370  0.38948380  0.72675390    -0.78700
O1108       O  0.90113674  0.36648268  0.80673167    -0.80200
O1109       O  0.95933909  0.40867137  0.69420718    -0.80000
O1110       O  0.88240185  0.41224231  0.63347243    -0.78600
Zn1111     Zn  0.84901277  0.34287670  0.68461010     1.55700
O1112       O  0.96221774  0.36067758  0.73586207    -0.80000
Cd1113     Cd  0.90001291  0.41798820  0.69096158     1.59700
Cd1114     Cd  0.83092140  0.40074260  0.75128802     1.59600
O1115       O  0.88924460  0.47055552  0.71860196    -0.80000
O1116       O  0.87186192  0.37779987  0.71943170    -1.90500
Cd1117     Cd  0.90744803  0.34865323  0.75153614     1.59900
O1118       O  0.83819859  0.45865627  0.75485273    -0.80000
O1119       O  0.89877937  0.28990231  0.74738980    -0.78600
C1120       C  0.76889611  0.37241255  0.69544192     0.83900
C1121       C  0.87498725  0.38091269  0.61605236     0.83600
O1122       O  0.85655107  0.28843615  0.70008871    -0.77600
C1123       C  0.97837866  0.38475958  0.71406107     0.84400
O1124       O  0.79388232  0.35417819  0.67675824    -0.77700
C1125       C  0.86409291  0.48100193  0.74296901     0.84500
C1126       C  0.87239297  0.37927147  0.82472809     0.84800
O1127       O  0.84081656  0.38744251  0.80834376    -0.80100
O1128       O  0.87019839  0.34970112  0.88352754    -0.77600
C1129       C  0.87746015  0.27152084  0.97456220     0.83400
O1130       O  0.77701830  0.38950279  0.97663548    -0.78700
O1131       O  0.90117274  0.36657624  0.55674627    -0.80200
O1132       O  0.95941791  0.40871167  0.94415821    -0.80000
O1133       O  0.88238880  0.41227501  0.88347245    -0.78600
Zn1134     Zn  0.84915740  0.34289927  0.93459342     1.55700
O1135       O  0.96230393  0.36077138  0.98587673    -0.80000
Cd1136     Cd  0.90008164  0.41802999  0.94094062     1.59700
Cd1137     Cd  0.83098133  0.40075786  0.50124390     1.59600
O1138       O  0.88930675  0.47058960  0.96859547    -0.80000
O1139       O  0.87195856  0.37783668  0.96942409    -1.90500
Cd1140     Cd  0.90753412  0.34872476  0.50155700     1.59900
O1141       O  0.83827046  0.45866667  0.00485276    -0.80000
O1142       O  0.89889686  0.28995942  0.99742180    -0.78600
C1143       C  0.76902622  0.37243039  0.94531811     0.83900
C1144       C  0.87507147  0.38091688  0.86606232     0.83600
O1145       O  0.85668406  0.28847092  0.95010773    -0.77600
C1146       C  0.97846187  0.38482257  0.96404152     0.84400
O1147       O  0.79402859  0.35419612  0.92665370    -0.77700
C1148       C  0.86415694  0.48102247  0.99297075     0.84500
C1149       C  0.87237368  0.37928344  0.57471385     0.84800
O1150       O  0.84079867  0.38738818  0.55829361    -0.80100
O1151       O  0.87023366  0.65150967  0.61725560    -0.77600
C1152       C  0.87749476  0.72973007  0.52627412     0.83400
O1153       O  0.77702245  0.61185208  0.52407434    -0.78700
O1154       O  0.90124939  0.63469663  0.94404111    -0.80200
O1155       O  0.95940138  0.59247407  0.55666856    -0.80000
O1156       O  0.88240166  0.58893276  0.61729572    -0.78600
Zn1157     Zn  0.84920805  0.65833678  0.56618244     1.55700
O1158       O  0.96236677  0.64044238  0.51498605    -0.80000
Cd1159     Cd  0.90007491  0.58319093  0.55982555     1.59700
Cd1160     Cd  0.83101163  0.60049288  0.99951087     1.59600
O1161       O  0.88931568  0.53064723  0.53215049    -0.80000
O1162       O  0.87199007  0.62340738  0.53133519    -1.90500
Cd1163     Cd  0.90760705  0.65253259  0.99924645     1.59900
O1164       O  0.83824897  0.54256879  0.49593210    -0.80000
O1165       O  0.89895006  0.71130868  0.50341409    -0.78600
C1166       C  0.76904998  0.62893288  0.55539527     0.83900
C1167       C  0.87511572  0.62029207  0.63471508     0.83600
O1168       O  0.85672231  0.71276118  0.55070908    -0.77600
C1169       C  0.97848315  0.61635480  0.53683589     0.84400
O1170       O  0.79408181  0.64710217  0.57408131    -0.77700
C1171       C  0.86415233  0.52021547  0.50778868     0.84500
C1172       C  0.87248066  0.62193031  0.92605833     0.84800
O1173       O  0.84090555  0.61378932  0.94245749    -0.80100
O1174       O  0.87025297  0.65149135  0.86725360    -0.77600
C1175       C  0.87748865  0.72969614  0.77627872     0.83400
O1176       O  0.77701048  0.61186600  0.77404681    -0.78700
O1177       O  0.90124353  0.63467686  0.69404089    -0.80200
O1178       O  0.95937914  0.59244423  0.80666247    -0.80000
O1179       O  0.88238738  0.58890959  0.86730448    -0.78600
Zn1180     Zn  0.84920465  0.65830354  0.81618829     1.55700
O1181       O  0.96234548  0.64041869  0.76498662    -0.80000
Cd1182     Cd  0.90005178  0.58315888  0.80982770     1.59700
Cd1183     Cd  0.83099427  0.60048797  0.74949595     1.59600
O1184       O  0.88926894  0.53061944  0.78214943    -0.80000
O1185       O  0.87197533  0.62337801  0.78133511    -1.90500
Cd1186     Cd  0.90758923  0.65250220  0.74924630     1.59900
O1187       O  0.83821398  0.54255935  0.74591787    -0.80000
O1188       O  0.89893801  0.71127419  0.75341446    -0.78600
C1189       C  0.76904312  0.62891873  0.80538352     0.83900
C1190       C  0.87512271  0.62027646  0.88472000     0.83600
O1191       O  0.85671565  0.71272827  0.80071389    -0.77600
C1192       C  0.97846068  0.61633020  0.78683451     0.84400
O1193       O  0.79408058  0.64705801  0.82409205    -0.77700
C1194       C  0.86410577  0.52019637  0.75778256     0.84500
C1195       C  0.87247012  0.62193256  0.67605213     0.84800
O1196       O  0.84089104  0.61379933  0.69244674    -0.80100
O1197       O  0.62873865  0.65165308  0.50842220    -0.77600
C1198       C  0.62141879  0.72978606  0.59963087     0.83400
O1199       O  0.72187052  0.61187554  0.60156563    -0.78700
O1200       O  0.59762314  0.63465642  0.68163281    -0.80200
O1201       O  0.53947543  0.59254165  0.56904881    -0.80000
O1202       O  0.61648082  0.58908619  0.50837487    -0.78600
Zn1203     Zn  0.64971788  0.65847464  0.55952568     1.55700
O1204       O  0.53654522  0.64049649  0.61074349    -0.80000
Cd1205     Cd  0.59881877  0.58330662  0.56584185     1.59700
Cd1206     Cd  0.66789409  0.60065072  0.62618113     1.59600
O1207       O  0.60961172  0.53078135  0.59353682    -0.80000
O1208       O  0.62691748  0.62351269  0.59432667    -1.90500
Cd1209     Cd  0.59129503  0.65255621  0.62646140     1.59900
O1210       O  0.66059442  0.54275779  0.62986019    -0.80000
O1211       O  0.59995714  0.71131177  0.62244177    -0.78600
C1212       C  0.72985926  0.62896585  0.57025724     0.83900
C1213       C  0.62382220  0.62043690  0.99096237     0.83600
O1214       O  0.64217820  0.71288133  0.57513759    -0.77600
C1215       C  0.52040926  0.61640897  0.58891699     0.84400
O1216       O  0.70485306  0.64721171  0.55160859    -0.77700
C1217       C  0.63472558  0.52038773  0.61796743     0.84500
C1218       C  0.62645215  0.62205028  0.69962335     0.84800
O1219       O  0.65806654  0.61405789  0.68322466    -0.80100
O1220       O  0.62866258  0.65162719  0.75842792    -0.77600
C1221       C  0.62144293  0.72973107  0.84961939     0.83400
O1222       O  0.72187778  0.61190918  0.85157965    -0.78700
O1223       O  0.59761683  0.63461656  0.93162732    -0.80200
O1224       O  0.53949942  0.59248357  0.81904023    -0.80000
O1225       O  0.61652108  0.58904074  0.75836981    -0.78600
Zn1226     Zn  0.64970507  0.65842174  0.80950603     1.55700
O1227       O  0.53655908  0.64044672  0.86072568    -0.80000
Cd1228     Cd  0.59884723  0.58325950  0.81583678     1.59700
Cd1229     Cd  0.66791086  0.60065980  0.87619385     1.59600
O1230       O  0.60966934  0.53075205  0.84354723    -0.80000
O1231       O  0.62692563  0.62347372  0.84432347    -1.90500
Cd1232     Cd  0.59130131  0.65250957  0.87645261     1.59900
O1233       O  0.66062979  0.54276411  0.87989420    -0.80000
O1234       O  0.59997420  0.71126100  0.87242930    -0.78600
C1235       C  0.72985255  0.62894869  0.82024049     0.83900
C1236       C  0.62380597  0.62040704  0.74096038     0.83600
O1237       O  0.64219799  0.71282433  0.82512681    -0.77600
C1238       C  0.52042864  0.61635370  0.83890237     0.84400
O1239       O  0.70483244  0.64714036  0.80155705    -0.77700
C1240       C  0.63477794  0.52037821  0.86799196     0.84500
C1241       C  0.62646418  0.62206431  0.94962473     0.84800
O1242       O  0.65808896  0.61410832  0.93322870    -0.80100
O1243       O  0.62843789  0.34998678  0.74238350    -0.77600
C1244       C  0.62124652  0.27183890  0.65124835     0.83400
O1245       O  0.72175483  0.38954986  0.64925826    -0.78700
O1246       O  0.59749149  0.36700248  0.56916987    -0.80200
O1247       O  0.53939698  0.40905453  0.68185551    -0.80000
O1248       O  0.61645363  0.41259957  0.74242662    -0.78600
Zn1249     Zn  0.64951156  0.34315876  0.69132658     1.55700
O1250       O  0.53643604  0.36110313  0.64015422    -0.80000
Cd1251     Cd  0.59873553  0.41834466  0.68496739     1.59700
Cd1252     Cd  0.66780121  0.40092916  0.62465476     1.59600
O1253       O  0.60954017  0.47084350  0.65722497    -0.80000
O1254       O  0.62678984  0.37811382  0.65648258    -1.90500
Cd1255     Cd  0.59116742  0.34907362  0.62434353     1.59900
O1256       O  0.66058943  0.45884122  0.62100447    -0.80000
O1257       O  0.59982706  0.29030225  0.62838475    -0.78600
C1258       C  0.72970259  0.37248066  0.68059055     0.83900
C1259       C  0.62366288  0.38122127  0.75984540     0.83600
O1260       O  0.64197440  0.28875995  0.67575526    -0.77600
C1261       C  0.52031891  0.38514995  0.66202491     0.84400
O1262       O  0.70464808  0.35434772  0.69928042    -0.77700
C1263       C  0.63470373  0.48122280  0.63284086     0.84500
C1264       C  0.62634342  0.37958340  0.55119657     0.84800
O1265       O  0.65795745  0.38754351  0.56761329    -0.80100
O1266       O  0.62869051  0.35000420  0.99240439    -0.77600
C1267       C  0.62137751  0.27180040  0.90128654     0.83400
O1268       O  0.72185891  0.38954686  0.89914220    -0.78700
O1269       O  0.59754005  0.36690156  0.81918401    -0.80200
O1270       O  0.53947002  0.40901552  0.93180939    -0.80000
O1271       O  0.61643250  0.41256810  0.99243261    -0.78600
Zn1272     Zn  0.64966006  0.34314411  0.94130954     1.55700
O1273       O  0.53652429  0.36101185  0.89016996    -0.80000
Cd1274     Cd  0.59879984  0.41830864  0.93495268     1.59700
Cd1275     Cd  0.66786644  0.40093025  0.87461419     1.59600
O1276       O  0.60960232  0.47081878  0.90723435    -0.80000
O1277       O  0.62688677  0.37808661  0.90647815    -1.90500
Cd1278     Cd  0.59126258  0.34900720  0.87436842     1.59900
O1279       O  0.66066356  0.45884369  0.87102168    -0.80000
O1280       O  0.59994402  0.29025097  0.87842640    -0.78600
C1281       C  0.72983304  0.37247607  0.93046710     0.83900
C1282       C  0.62373791  0.38121729  0.50985709     0.83600
O1283       O  0.64211288  0.28873215  0.92577797    -0.77600
C1284       C  0.52039995  0.38508542  0.91200732     0.84400
O1285       O  0.70479624  0.35433950  0.94917454    -0.77700
C1286       C  0.63477071  0.48121367  0.88286239     0.84500
C1287       C  0.62633208  0.37957623  0.80118179     0.84800
O1288       O  0.65794220  0.38762239  0.81756385    -0.80100
O1289       O  0.14219446  0.71265548  0.55085547    -0.77600
C1290       C  0.12385388  0.62015221  0.63482522     0.83400
O1291       O  0.22194881  0.61178946  0.52420715    -0.78700
O1292       O  0.10963918  0.53055513  0.53227672    -0.80200
O1293       O  0.03664029  0.64039504  0.51501756    -0.80000
O1294       O  0.10004924  0.71119788  0.50348569    -0.78600
Zn1295     Zn  0.14973188  0.65823163  0.56630762     1.55700
O1296       O  0.03953953  0.59243546  0.55671352    -0.80000
Cd1297     Cd  0.09140846  0.65243285  0.99932769     1.59700
Cd1298     Cd  0.16798010  0.60036667  0.99963997     1.59600
O1299       O  0.09775646  0.63459294  0.94414095    -0.80000
O1300       O  0.12698964  0.62329616  0.53144303    -1.90500
Cd1301     Cd  0.09886889  0.58310273  0.55992129     1.59900
O1302       O  0.15807405  0.61361307  0.94256751    -0.80000
O1303       O  0.11655252  0.58880394  0.61739401    -0.78600
C1304       C  0.22989600  0.62887588  0.55553187     0.83900
C1305       C  0.12145409  0.72962106  0.52639137     0.83600
O1306       O  0.12872176  0.65137790  0.61737792    -0.77600
C1307       C  0.02048979  0.61633805  0.53685053     0.84400
O1308       O  0.20484879  0.64702538  0.57421098    -0.77700
C1309       C  0.12650780  0.62179101  0.92616466     0.84500
C1310       C  0.13484394  0.52009191  0.50797531     0.84800
O1311       O  0.16077601  0.54242492  0.49614232    -0.80100
O1312       O  0.14221489  0.71262612  0.80084459    -0.77600
C1313       C  0.12385248  0.62015089  0.88482930     0.83400
O1314       O  0.22193355  0.61169295  0.77421199    -0.78700
O1315       O  0.10956982  0.53053618  0.78229822    -0.80200
O1316       O  0.03661921  0.64036443  0.76500887    -0.80000
O1317       O  0.10003413  0.71117510  0.75350545    -0.78600
Zn1318     Zn  0.14974573  0.65820105  0.81629673     1.55700
O1319       O  0.03951277  0.59242970  0.80673336    -0.80000
Cd1320     Cd  0.09139147  0.65241052  0.74933048     1.59700
Cd1321     Cd  0.16794735  0.60031837  0.74964404     1.59600
O1322       O  0.09775411  0.63459059  0.69413710    -0.80000
O1323       O  0.12697025  0.62326976  0.78144718    -1.90500
Cd1324     Cd  0.09883508  0.58309185  0.80993853     1.59900
O1325       O  0.15806090  0.61357931  0.69257037    -0.80000
O1326       O  0.11651932  0.58880345  0.86740954    -0.78600
C1327       C  0.22989842  0.62879562  0.80552377     0.83900
C1328       C  0.12145782  0.72959489  0.77639722     0.83600
O1329       O  0.12875132  0.65136606  0.86737267    -0.77600
C1330       C  0.02046609  0.61631822  0.78685303     0.84400
O1331       O  0.20486448  0.64697608  0.82419129    -0.77700
C1332       C  0.12650313  0.62178006  0.67616261     0.84500
C1333       C  0.13475247  0.52006620  0.75797734     0.84800
O1334       O  0.16068753  0.54238859  0.74613123    -0.80100
O1335       O  0.14208437  0.28831843  0.70037741    -0.77600
C1336       C  0.12374765  0.38075630  0.61629048     0.83400
O1337       O  0.22176407  0.38932754  0.72686412    -0.78700
O1338       O  0.10959072  0.47045126  0.71878743    -0.80200
O1339       O  0.03648209  0.36070159  0.73601303    -0.80000
O1340       O  0.09983924  0.28982746  0.74765958    -0.78600
Zn1341     Zn  0.14960638  0.34273697  0.68482803     1.55700
O1342       O  0.03947758  0.40861582  0.69426765    -0.80000
Cd1343     Cd  0.09122425  0.34859881  0.75178515     1.59700
Cd1344     Cd  0.16781862  0.40057510  0.75149406     1.59600
O1345       O  0.09761473  0.36643218  0.80698389    -0.80000
O1346       O  0.12684437  0.37767726  0.71966937    -1.90500
Cd1347     Cd  0.09880651  0.41789490  0.69114892     1.59900
O1348       O  0.15800934  0.38719405  0.80853424    -0.80000
O1349       O  0.11653018  0.41213316  0.63370323    -0.78600
C1350       C  0.22973366  0.37228735  0.69552509     0.83900
C1351       C  0.12129305  0.27137940  0.72482109     0.83600
O1352       O  0.12852537  0.34952583  0.63375941    -0.77600
C1353       C  0.02038293  0.38475502  0.71411823     0.84400
O1354       O  0.20472428  0.35405782  0.67686203    -0.77700
C1355       C  0.12643101  0.37910893  0.82495286     0.84500
C1356       C  0.13472557  0.48086726  0.74318550     0.84800
O1357       O  0.16057215  0.45848797  0.75511007    -0.80100
O1358       O  0.14222994  0.28834899  0.95037481    -0.77600
C1359       C  0.12382090  0.38076164  0.86628943     0.83400
O1360       O  0.22188465  0.38929441  0.97695190    -0.78700
O1361       O  0.10971209  0.47047491  0.96877771    -0.80200
O1362       O  0.03656353  0.36072069  0.98595277    -0.80000
O1363       O  0.09993213  0.28984946  0.99760855    -0.78600
Zn1364     Zn  0.14973418  0.34276694  0.93484051     1.55700
O1365       O  0.03957143  0.40868150  0.94426652    -0.80000
Cd1366     Cd  0.09129551  0.34861574  0.50173972     1.59700
Cd1367     Cd  0.16790692  0.40058861  0.50153241     1.59600
O1368       O  0.09763234  0.36642493  0.55694769    -0.80000
O1369       O  0.12695141  0.37770602  0.96966988    -1.90500
Cd1370     Cd  0.09890956  0.41792251  0.94114685     1.59900
O1371       O  0.15800968  0.38723139  0.55857414    -0.80000
O1372       O  0.11658466  0.41213857  0.88369374    -0.78600
C1373       C  0.22985881  0.37226912  0.94560398     0.83900
C1374       C  0.12141641  0.27140668  0.97479678     0.83600
O1375       O  0.12867654  0.34954785  0.88376549    -0.77600
C1376       C  0.02046876  0.38480569  0.96408708     0.84400
O1377       O  0.20484537  0.35407907  0.92691101    -0.77700
C1378       C  0.12641626  0.37911979  0.57495415     0.84500
C1379       C  0.13483922  0.48089257  0.99318290     0.84800
O1380       O  0.16068193  0.45851339  0.00512085    -0.80100
O1381       O  0.35658003  0.28866161  0.67589745    -0.77600
C1382       C  0.37497662  0.38109161  0.75999391     0.83400
O1383       O  0.27685644  0.38942829  0.64931678    -0.78700
O1384       O  0.38908888  0.47072919  0.65742930    -0.80200
O1385       O  0.46219125  0.36100890  0.64025890    -0.80000
O1386       O  0.39877546  0.29018069  0.62857631    -0.78600
Zn1387     Zn  0.34908592  0.34306017  0.69145199     1.55700
O1388       O  0.45923903  0.40899505  0.68191784    -0.80000
Cd1389     Cd  0.40744921  0.34893849  0.62451814     1.59700
Cd1390     Cd  0.33083057  0.40085172  0.62475924     1.59600
O1391       O  0.40114527  0.36679927  0.56933569    -0.80000
O1392       O  0.37182298  0.37801192  0.65661561    -1.90500
Cd1393     Cd  0.39989834  0.41822087  0.68511268     1.59900
O1394       O  0.34074320  0.38751915  0.56770533    -0.80000
O1395       O  0.38224361  0.41245892  0.74258208    -0.78600
C1396       C  0.26891312  0.37236138  0.68065248     0.83900
C1397       C  0.37731674  0.27173136  0.65141157     0.83600
O1398       O  0.37011083  0.34987422  0.74252775    -0.77600
C1399       C  0.47831476  0.38511413  0.66207797     0.84400
O1400       O  0.29397081  0.35425233  0.69935792    -0.77700
C1401       C  0.37235146  0.37945926  0.55132690     0.84500
C1402       C  0.36394154  0.48113796  0.63304307     0.84800
O1403       O  0.33804951  0.45877740  0.62117200    -0.80100
O1404       O  0.35673807  0.28859694  0.92589615    -0.77600
C1405       C  0.37502815  0.38107849  0.50999015     0.83400
O1406       O  0.27697281  0.38941140  0.89940103    -0.78700
O1407       O  0.38919425  0.47067822  0.90740617    -0.80200
O1408       O  0.46227534  0.36097079  0.89020505    -0.80000
O1409       O  0.39887371  0.29012738  0.87851987    -0.78600
Zn1410     Zn  0.34921807  0.34299577  0.94146600     1.55700
O1411       O  0.45932401  0.40891782  0.93191395    -0.80000
Cd1412     Cd  0.40753221  0.34889470  0.87447157     1.59700
Cd1413     Cd  0.33091911  0.40080115  0.87479623     1.59600
O1414       O  0.40118001  0.36679710  0.81930137    -0.80000
O1415       O  0.37192751  0.37795055  0.90661314    -1.90500
Cd1416     Cd  0.39998938  0.41817005  0.93510206     1.59900
O1417       O  0.34075571  0.38745838  0.81774410    -0.80000
O1418       O  0.38227763  0.41244173  0.99256085    -0.78600
C1419       C  0.26903758  0.37233012  0.93072911     0.83900
C1420       C  0.37745003  0.27167110  0.90138188     0.83600
O1421       O  0.37025690  0.34983701  0.99254019    -0.77600
C1422       C  0.47839770  0.38505261  0.91204920     0.84400
O1423       O  0.29409440  0.35418592  0.94940472    -0.77700
C1424       C  0.37235447  0.37944102  0.80132996     0.84500
C1425       C  0.36403380  0.48108385  0.88303233     0.84800
O1426       O  0.33813669  0.45872064  0.87118169    -0.80100
O1427       O  0.35671671  0.71277051  0.57535824    -0.77600
C1428       C  0.37506968  0.62031778  0.99121985     0.83400
O1429       O  0.27700702  0.61192646  0.60179823    -0.78700
O1430       O  0.38912674  0.53068425  0.59379692    -0.80200
O1431       O  0.46230214  0.64043168  0.61086686    -0.80000
O1432       O  0.39891089  0.71121390  0.62269053    -0.78600
Zn1433     Zn  0.34922190  0.65836748  0.55973690     1.55700
O1434       O  0.45931120  0.59246495  0.56918484    -0.80000
Cd1435     Cd  0.40757934  0.65246032  0.62670817     1.59700
Cd1436     Cd  0.33094279  0.60062014  0.62644117     1.59600
O1437       O  0.40126928  0.63455669  0.68188507    -0.80000
O1438       O  0.37194104  0.62342445  0.59459054    -1.90500
Cd1439     Cd  0.39996649  0.58319136  0.56609423     1.59900
O1440       O  0.34080678  0.61400587  0.68348505    -0.80000
O1441       O  0.38224220  0.58893860  0.50864609    -0.78600
C1442       C  0.26907000  0.62891876  0.57042287     0.83900
C1443       C  0.37746216  0.72968127  0.59986267     0.83600
O1444       O  0.37032917  0.65156308  0.50867784    -0.77600
C1445       C  0.47840405  0.61637498  0.58899312     0.84400
O1446       O  0.29411082  0.64707298  0.55173364    -0.77700
C1447       C  0.37243084  0.62197640  0.69987979     0.84500
C1448       C  0.36397419  0.52030949  0.61819363     0.84800
O1449       O  0.33812969  0.54270873  0.63008183    -0.80100
O1450       O  0.35671458  0.71271962  0.82538629    -0.77600
C1451       C  0.37508370  0.62032278  0.74121682     0.83400
O1452       O  0.27702499  0.61182229  0.85177355    -0.78700
O1453       O  0.38917278  0.53063369  0.84375843    -0.80200
O1454       O  0.46232070  0.64035667  0.86086932    -0.80000
O1455       O  0.39894321  0.71115477  0.87268729    -0.78600
Zn1456     Zn  0.34922463  0.65831995  0.80975072     1.55700
O1457       O  0.45933238  0.59242418  0.81914819    -0.80000
Cd1458     Cd  0.40759898  0.65239645  0.87670843     1.59700
Cd1459     Cd  0.33096786  0.60055244  0.87643337     1.59600
O1460       O  0.40127700  0.63450489  0.93188758    -0.80000
O1461       O  0.37196020  0.62336836  0.84458512    -1.90500
Cd1462     Cd  0.39998933  0.58315079  0.81606457     1.59900
O1463       O  0.34080902  0.61396932  0.93347802    -0.80000
O1464       O  0.38225529  0.58892989  0.75862172    -0.78600
C1465       C  0.26907835  0.62883238  0.82040948     0.83900
C1466       C  0.37748069  0.72962690  0.84987529     0.83600
O1467       O  0.37034726  0.65155514  0.75869558    -0.77600
C1468       C  0.47842385  0.61631693  0.83897696     0.84400
O1469       O  0.29411223  0.64701219  0.80173446    -0.77700
C1470       C  0.37242921  0.62194327  0.94988003     0.84500
C1471       C  0.36404691  0.52025500  0.86818104     0.84800
O1472       O  0.33820673  0.54264819  0.88009135    -0.80100
loop_ 
_geom_bond_atom_site_label_1 
_geom_bond_atom_site_label_2 
_geom_bond_distance 
_geom_bond_site_symmetry_2 
_ccdc_geom_bond_type 
O1           C17   1.273       .  A
O1           Zn7   2.002       .  S
C2          O754   1.267       .  A
C2          O751   1.284       .  A
C2           C44   1.455       .  S
O3           C16   1.283       .  A
O3          Cd10   2.118       .  S
O4           C22   1.282       .  A
O4          Cd13   2.117       .  S
O5           C19   1.273       .  A
O5           Cd9   2.042       .  S
O6           C17   1.276       .  A
O6           Cd9   2.089       .  S
Zn7          O18   1.952       .  S
Zn7          O20   1.992       .  S
Zn7          O12   1.907       .  S
O8           C19   1.278       .  A
O8          Cd13   2.109       .  S
Cd9          O11   2.048       .  S
Cd9          O12   1.968       .  S
Cd10         O14   2.085       .  S
Cd10         O23   2.052       .  S
Cd10         O12   1.990       .  S
O11          C21   1.271       .  A
O12         Cd13   1.990       .  S
Cd13         O15   2.119       .  S
O14          C21   1.280       .  A
O15         C738   1.284   1_554  A
C16          O20   1.268       .  A
C16          C62   1.470       .  S
C17         C462   1.471       .  S
O18         C738   1.267   1_554  A
C19         C249   1.473       .  S
C21          C25   1.455       .  S
C22          O23   1.270       .  A
C22         C160   1.470   1_565  S
O24          C40   1.273       .  A
O24         Zn30   2.002       .  S
C25          O41   1.267       .  A
C25          O38   1.284       .  A
O26          C39   1.283       .  A
O26         Cd33   2.118       .  S
O27          C45   1.282       .  A
O27         Cd36   2.117       .  S
O28          C42   1.273       .  A
O28         Cd32   2.042       .  S
O29          C40   1.276       .  A
O29         Cd32   2.089       .  S
Zn30         O41   1.953       .  S
Zn30         O43   1.992       .  S
Zn30         O35   1.907       .  S
O31          C42   1.278       .  A
O31         Cd36   2.109       .  S
Cd32         O34   2.047       .  S
Cd32         O35   1.968       .  S
Cd33         O37   2.085       .  S
Cd33         O46   2.052       .  S
Cd33         O35   1.990       .  S
O34          C44   1.271       .  A
O35         Cd36   1.990       .  S
Cd36         O38   2.119       .  S
O37          C44   1.280       .  A
C39          O43   1.268       .  A
C39          C85   1.470       .  S
C40         C485   1.471       .  S
C42         C272   1.473       .  S
C45          O46   1.270       .  A
C45         C183   1.470   1_565  S
O47          C63   1.273       .  A
O47         Zn53   2.004       .  S
C48          O64   1.267       .  A
C48          O61   1.284       .  A
C48          C90   1.455       .  S
O49          C62   1.283       .  A
O49        Cd792   2.118   1_554  S
O50          C68   1.282       .  A
O50         Cd59   2.118       .  S
O51          C65   1.273       .  A
O51        Cd791   2.042   1_554  S
O52          C63   1.276       .  A
O52        Cd791   2.089   1_554  S
Zn53         O64   1.953       .  S
Zn53         O66   1.993       .  S
Zn53         O58   1.907       .  S
O54          C65   1.278       .  A
O54         Cd59   2.109       .  S
Cd55         O57   2.048       .  S
Cd55        O787   2.042       .  S
Cd55        O788   2.089       .  S
Cd55        O794   1.967       .  S
Cd56         O60   2.085       .  S
Cd56        O785   2.118       .  S
Cd56        O805   2.051       .  S
Cd56        O794   1.989       .  S
O57          C67   1.271       .  A
O58         Cd59   1.990       .  S
O58        Cd791   1.967   1_554  S
O58        Cd792   1.989   1_554  S
Cd59         O61   2.120       .  S
O60          C67   1.280       .  A
C62          O66   1.268       .  A
C63         C416   1.471       .  S
C65         C203   1.473   1_655  S
C67          C71   1.455       .  S
C68          O69   1.270   1_554  A
C68         C873   1.470   1_564  S
O69        Cd792   2.051       .  S
O70          C86   1.273       .  A
O70         Zn76   2.004       .  S
C71          O87   1.267       .  A
C71          O84   1.284       .  A
O72          C85   1.283       .  A
O72         Cd79   2.117       .  S
O73          C91   1.282       .  A
O73         Cd82   2.118       .  S
O74          C88   1.273       .  A
O74         Cd78   2.042       .  S
O75          C86   1.276       .  A
O75         Cd78   2.089       .  S
Zn76         O87   1.953       .  S
Zn76         O89   1.993       .  S
Zn76         O81   1.906       .  S
O77          C88   1.279       .  A
O77         Cd82   2.110       .  S
Cd78         O80   2.048       .  S
Cd78         O81   1.967       .  S
Cd79         O83   2.085       .  S
Cd79         O92   2.051       .  S
Cd79         O81   1.989       .  S
O80          C90   1.271       .  A
O81         Cd82   1.990       .  S
Cd82         O84   2.120       .  S
O83          C90   1.280       .  A
C85          O89   1.268       .  A
C86         C439   1.471       .  S
C88         C226   1.473   1_655  S
C91          O92   1.270       .  A
C91         C114   1.470   1_565  S
O93         C109   1.273       .  A
O93         Zn99   2.003       .  S
C94         O110   1.267       .  A
C94         O107   1.284       .  A
C94         C136   1.455       .  S
O95         C108   1.283       .  A
O95        Cd102   2.118       .  S
O96         C114   1.282       .  A
O96        Cd105   2.118       .  S
O97         C111   1.273       .  A
O97        Cd101   2.042       .  S
O98         C109   1.276       .  A
O98        Cd101   2.089       .  S
Zn99        O110   1.953       .  S
Zn99        O112   1.992       .  S
Zn99        O104   1.907       .  S
O100        C111   1.279       .  A
O100       Cd105   2.109       .  S
Cd101       O103   2.048       .  S
Cd101       O104   1.968       .  S
Cd102       O106   2.085       .  S
Cd102       O115   2.052       .  S
Cd102       O104   1.990       .  S
O103        C113   1.271       .  A
O104       Cd105   1.990       .  S
Cd105       O107   2.120       .  S
O106        C113   1.280       .  A
C108        O112   1.268       .  A
C108        C154   1.470       .  S
C109        C370   1.471       .  S
C111        C341   1.473   1_655  S
C113        C117   1.455       .  S
C114        O115   1.270       .  A
O116        C132   1.273       .  A
O116       Zn122   2.003       .  S
C117        O133   1.267       .  A
C117        O130   1.284       .  A
O118        C131   1.283       .  A
O118       Cd861   2.118       .  S
O119        C137   1.282       .  A
O119       Cd128   2.118       .  S
O120        C134   1.273       .  A
O120       Cd860   2.042       .  S
O121        C132   1.276       .  A
O121       Cd860   2.089       .  S
Zn122       O133   1.953       .  S
Zn122       O135   1.993       .  S
Zn122       O127   1.907       .  S
O123        C134   1.279       .  A
O123       Cd128   2.109       .  S
Cd124       O126   2.048       .  S
Cd124       O856   2.042   1_554  S
Cd124       O857   2.089   1_554  S
Cd124       O863   1.967   1_554  S
Cd125       O129   2.085       .  S
Cd125       O854   2.118   1_554  S
Cd125       O874   2.052       .  S
Cd125       O863   1.989   1_554  S
O126        C136   1.271       .  A
O127       Cd128   1.990       .  S
O127       Cd860   1.967       .  S
O127       Cd861   1.989       .  S
Cd128       O130   2.120       .  S
O129        C136   1.280       .  A
C131        O135   1.268       .  A
C131        C177   1.470       .  S
C132        C393   1.471       .  S
C134        C364   1.473   1_655  S
C137        O138   1.270       .  A
C137        C804   1.470   1_545  S
O138       Cd861   2.052       .  S
O139        C155   1.273       .  A
O139       Zn145   2.003       .  S
C140        O156   1.267       .  A
C140        O153   1.284       .  A
C140        C182   1.455       .  S
O141        C154   1.283       .  A
O141       Cd148   2.117       .  S
O142        C160   1.282       .  A
O142       Cd151   2.117       .  S
O143        C157   1.273       .  A
O143       Cd147   2.043       .  S
O144        C155   1.276       .  A
O144       Cd147   2.089       .  S
Zn145       O156   1.953       .  S
Zn145       O158   1.993       .  S
Zn145       O150   1.907       .  S
O146        C157   1.279       .  A
O146       Cd151   2.109       .  S
Cd147       O149   2.048       .  S
Cd147       O150   1.968       .  S
Cd148       O152   2.084       .  S
Cd148       O161   2.051       .  S
Cd148       O150   1.989       .  S
O149        C159   1.272       .  A
O150       Cd151   1.990       .  S
Cd151       O153   2.119       .  S
O152        C159   1.280       .  A
C154        O158   1.268       .  A
C155        C508   1.471       .  S
C157        C295   1.473       .  S
C159        C163   1.455       .  S
C160        O161   1.270       .  A
O162        C178   1.273       .  A
O162       Zn168   2.003       .  S
C163        O915   1.267   1_554  A
C163        O912   1.284   1_554  A
O164        C177   1.283       .  A
O164       Cd171   2.118       .  S
O165        C183   1.282       .  A
O165       Cd174   2.117       .  S
O166        C180   1.273       .  A
O166       Cd170   2.043       .  S
O167        C178   1.276       .  A
O167       Cd170   2.089       .  S
Zn168       O179   1.953       .  S
Zn168       O181   1.993       .  S
Zn168       O173   1.907       .  S
O169        C180   1.279       .  A
O169       Cd174   2.109       .  S
Cd170       O172   2.048       .  S
Cd170       O173   1.968       .  S
Cd171       O175   2.085       .  S
Cd171       O184   2.052       .  S
Cd171       O173   1.990       .  S
O172        C182   1.271       .  A
O173       Cd174   1.990       .  S
Cd174       O176   2.119       .  S
O175        C182   1.280       .  A
O176        C899   1.284       .  A
C177        O181   1.268       .  A
C178        C531   1.471       .  S
O179        C899   1.267       .  A
C180        C318   1.473       .  S
C183        O184   1.270       .  A
O185        C201   1.267       .  A
O185       Zn191   1.953       .  S
C186        O202   1.273       .  A
C186        O199   1.276       .  A
C186        C569   1.471       .  S
O187        C200   1.283       .  A
O187       Cd930   2.117   1_554  S
O188        C206   1.271       .  A
O188       Cd197   2.048       .  S
O189        C203   1.279       .  A
O189       Cd193   2.109       .  S
O190        C201   1.284       .  A
O190       Cd193   2.120       .  S
Zn191       O202   2.003       .  S
Zn191       O204   1.993       .  S
Zn191       O196   1.906       .  S
O192        C203   1.273       .  A
O192       Cd933   2.042   1_554  S
Cd193       O195   2.117       .  S
Cd193       O196   1.990       .  S
Cd194       O207   2.085       .  S
Cd194       O923   2.117       .  S
Cd194       O934   2.052       .  S
Cd194       O932   1.989       .  S
O195        C205   1.282       .  A
O196       Cd930   1.989   1_554  S
O196       Cd933   1.967   1_554  S
Cd197       O928   2.042       .  S
Cd197       O935   2.089       .  S
Cd197       O932   1.967       .  S
O198        C205   1.270   1_556  A
O198       Cd930   2.052       .  S
O199       Cd933   2.089   1_554  S
C200        O204   1.268       .  A
C200        C246   1.470       .  S
C201        C229   1.455       .  S
C205       C1102   1.470   1_564  S
C206        O207   1.280       .  A
C206        C224   1.455       .  S
O208        C224   1.267       .  A
O208       Zn214   1.953       .  S
C209        O225   1.273       .  A
C209        O222   1.276       .  A
C209        C592   1.471       .  S
O210        C223   1.283       .  A
O210       Cd217   2.118       .  S
O211        C229   1.271       .  A
O211       Cd220   2.048       .  S
O212        C226   1.279       .  A
O212       Cd216   2.109       .  S
O213        C224   1.284       .  A
O213       Cd216   2.119       .  S
Zn214       O225   2.003       .  S
Zn214       O227   1.993       .  S
Zn214       O219   1.907       .  S
O215        C226   1.273       .  A
O215       Cd220   2.042       .  S
Cd216       O218   2.118       .  S
Cd216       O219   1.990       .  S
Cd217       O221   2.051       .  S
Cd217       O230   2.085       .  S
Cd217       O219   1.990       .  S
O218        C228   1.282       .  A
O219       Cd220   1.967       .  S
Cd220       O222   2.089       .  S
O221        C228   1.270       .  A
C223        O227   1.268       .  A
C223        C269   1.470       .  S
C228        C343   1.470   1_565  S
C229        O230   1.280       .  A
O231        C983   1.267   1_554  A
O231       Zn237   1.953       .  S
C232        O248   1.273       .  A
C232        O245   1.276       .  A
C232        C707   1.471       .  S
O233        C246   1.283       .  A
O233       Cd240   2.118       .  S
O234        C252   1.271       .  A
O234       Cd243   2.048       .  S
O235        C249   1.279       .  A
O235       Cd239   2.109       .  S
O236        C983   1.284   1_554  A
O236       Cd239   2.119       .  S
Zn237       O248   2.002       .  S
Zn237       O250   1.992       .  S
Zn237       O242   1.906       .  S
O238        C249   1.273       .  A
O238       Cd243   2.043       .  S
Cd239       O241   2.117       .  S
Cd239       O242   1.990       .  S
Cd240       O244   2.052       .  S
Cd240       O253   2.085       .  S
Cd240       O242   1.990       .  S
O241        C251   1.282       .  A
O242       Cd243   1.968       .  S
Cd243       O245   2.089       .  S
O244        C251   1.270       .  A
C246        O250   1.268       .  A
C247        O967   1.267       .  A
C247        O972   1.284       .  A
C247        C275   1.455       .  S
C251        C297   1.470   1_565  S
C252        O253   1.280       .  A
C252        C270   1.455       .  S
O254        C270   1.267       .  A
O254       Zn260   1.953       .  S
C255        O271   1.273       .  A
C255        O268   1.276       .  A
C255        C730   1.471       .  S
O256        C269   1.283       .  A
O256       Cd263   2.118       .  S
O257        C275   1.272       .  A
O257       Cd266   2.048       .  S
O258        C272   1.279       .  A
O258       Cd262   2.109       .  S
O259        C270   1.284       .  A
O259       Cd262   2.119       .  S
Zn260       O271   2.002       .  S
Zn260       O273   1.992       .  S
Zn260       O265   1.907       .  S
O261        C272   1.273       .  A
O261       Cd266   2.043       .  S
Cd262       O264   2.117       .  S
Cd262       O265   1.990       .  S
Cd263       O267   2.052       .  S
Cd263       O276   2.085       .  S
Cd263       O265   1.990       .  S
O264        C274   1.282       .  A
O265       Cd266   1.968       .  S
Cd266       O268   2.089       .  S
O267        C274   1.270       .  A
C269        O273   1.268       .  A
C274        C320   1.470   1_565  S
C275        O276   1.280       .  A
O277        C293   1.267       .  A
O277       Zn283   1.953       .  S
C278        O294   1.273       .  A
C278        O291   1.276       .  A
C278        C661   1.471       .  S
O279        C292   1.283       .  A
O279       Cd286   2.118       .  S
O280        C298   1.271       .  A
O280       Cd289   2.047       .  S
O281        C295   1.278       .  A
O281       Cd285   2.109       .  S
O282        C293   1.284       .  A
O282       Cd285   2.119       .  S
Zn283       O294   2.003       .  S
Zn283       O296   1.992       .  S
Zn283       O288   1.907       .  S
O284        C295   1.273       .  A
O284       Cd289   2.042       .  S
Cd285       O287   2.117       .  S
Cd285       O288   1.990       .  S
Cd286       O290   2.052       .  S
Cd286       O299   2.085       .  S
Cd286       O288   1.990       .  S
O287        C297   1.282       .  A
O288       Cd289   1.968       .  S
Cd289       O291   2.088       .  S
O290        C297   1.270       .  A
C292        O296   1.268       .  A
C292        C338   1.470       .  S
C293        C321   1.455       .  S
C298        O299   1.280       .  A
C298        C316   1.455       .  S
O300       C1052   1.267       .  A
O300       Zn306   1.953       .  S
C301        O317   1.273       .  A
C301        O314   1.276       .  A
C301        C684   1.471       .  S
O302        C315   1.283       .  A
O302       Cd309   2.117       .  S
O303        C321   1.271       .  A
O303       Cd312   2.048       .  S
O304        C318   1.279       .  A
O304       Cd308   2.109       .  S
O305       C1052   1.284       .  A
O305       Cd308   2.119       .  S
Zn306       O317   2.003       .  S
Zn306       O319   1.993       .  S
Zn306       O311   1.907       .  S
O307        C318   1.273       .  A
O307       Cd312   2.042       .  S
Cd308       O310   2.117       .  S
Cd308       O311   1.990       .  S
Cd309       O313   2.052       .  S
Cd309       O322   2.085       .  S
Cd309       O311   1.989       .  S
O310        C320   1.282       .  A
O311       Cd312   1.968       .  S
Cd312       O314   2.089       .  S
O313        C320   1.270       .  A
C315        O319   1.268       .  A
C315        C361   1.470       .  S
C316       O1036   1.267   1_554  A
C316       O1041   1.284   1_554  A
C321        O322   1.280       .  A
O323        C339   1.267       .  A
O323       Zn329   1.953       .  S
C324        O340   1.273       .  A
C324        O337   1.276       .  A
C324        C615   1.471       .  S
O325        C338   1.283       .  A
O325       Cd332   2.118       .  S
O326        C344   1.272       .  A
O326       Cd335   2.048       .  S
O327        C341   1.279       .  A
O327       Cd331   2.109       .  S
O328        C339   1.284       .  A
O328       Cd331   2.120       .  S
Zn329       O340   2.003       .  S
Zn329       O342   1.993       .  S
Zn329       O334   1.906       .  S
O330        C341   1.273       .  A
O330       Cd335   2.042       .  S
Cd331       O333   2.118       .  S
Cd331       O334   1.990       .  S
Cd332       O336   2.052       .  S
Cd332       O345   2.085       .  S
Cd332       O334   1.989       .  S
O333        C343   1.282       .  A
O334       Cd335   1.967       .  S
Cd335       O337   2.089       .  S
O336        C343   1.270       .  A
C338        O342   1.268       .  A
C339        C367   1.455       .  S
C344        O345   1.280       .  A
C344        C362   1.455       .  S
O346        C362   1.267       .  A
O346       Zn352   1.953       .  S
C347        O363   1.273       .  A
C347        O360   1.276       .  A
C347        C638   1.471       .  S
O348        C361   1.283       .  A
O348      Cd1091   2.118       .  S
O349        C367   1.271       .  A
O349       Cd358   2.048       .  S
O350        C364   1.278       .  A
O350       Cd354   2.109       .  S
O351        C362   1.284       .  A
O351       Cd354   2.120       .  S
Zn352       O363   2.003       .  S
Zn352       O365   1.992       .  S
Zn352       O357   1.906       .  S
O353        C364   1.273       .  A
O353      Cd1094   2.042       .  S
Cd354       O356   2.118       .  S
Cd354       O357   1.990       .  S
Cd355       O368   2.085       .  S
Cd355      O1084   2.118   1_554  S
Cd355      O1095   2.052       .  S
Cd355      O1093   1.990   1_554  S
O356        C366   1.282       .  A
O357      Cd1091   1.990       .  S
O357      Cd1094   1.967       .  S
Cd358      O1089   2.042   1_554  S
Cd358      O1096   2.089   1_554  S
Cd358      O1093   1.967   1_554  S
O359        C366   1.270       .  A
O359      Cd1091   2.052       .  S
O360      Cd1094   2.089       .  S
C361        O365   1.268       .  A
C366        C941   1.470   1_545  S
C367        O368   1.280       .  A
O369        C385   1.267       .  A
O369       Zn375   1.953       .  S
C370        O386   1.273       .  A
C370        O383   1.276       .  A
O371        C384   1.283       .  A
O371       Cd378   2.118       .  S
O372        C390   1.271       .  A
O372       Cd381   2.047       .  S
O373        C387   1.279       .  A
O373       Cd377   2.109       .  S
O374        C385   1.284       .  A
O374       Cd377   2.119       .  S
Zn375       O386   2.003       .  S
Zn375       O388   1.993       .  S
Zn375       O380   1.907       .  S
O376        C387   1.273       .  A
O376       Cd381   2.042       .  S
Cd377       O379   2.118       .  S
Cd377       O380   1.990       .  S
Cd378       O382   2.052       .  S
Cd378       O391   2.085       .  S
Cd378       O380   1.990       .  S
O379        C389   1.282       .  A
O380       Cd381   1.968       .  S
Cd381       O383   2.089       .  S
O382        C389   1.270       .  A
C384        O388   1.268       .  A
C384        C522   1.470       .  S
C385        C413   1.455       .  S
C387        C617   1.473   1_655  S
C389        C458   1.470       .  S
C390        O391   1.280       .  A
C390        C408   1.455       .  S
O392        C408   1.267       .  A
O392       Zn398   1.953       .  S
C393        O409   1.273       .  A
C393        O406   1.276       .  A
O394        C407   1.283       .  A
O394      Cd1137   2.118       .  S
O395        C413   1.271       .  A
O395       Cd404   2.048       .  S
O396        C410   1.279       .  A
O396       Cd400   2.110       .  S
O397        C408   1.284       .  A
O397       Cd400   2.120       .  S
Zn398       O409   2.003       .  S
Zn398       O411   1.993       .  S
Zn398       O403   1.907       .  S
O399        C410   1.273       .  A
O399      Cd1140   2.042       .  S
Cd400       O402   2.118       .  S
Cd400       O403   1.990       .  S
Cd401       O414   2.085       .  S
Cd401      O1130   2.118   1_554  S
Cd401      O1141   2.052       .  S
Cd401      O1139   1.990   1_554  S
O402        C412   1.282       .  A
O403      Cd1137   1.990       .  S
O403      Cd1140   1.968       .  S
Cd404      O1135   2.042   1_554  S
Cd404      O1142   2.089   1_554  S
Cd404      O1139   1.968   1_554  S
O405        C412   1.270       .  A
O405      Cd1137   2.052       .  S
O406      Cd1140   2.089       .  S
C407        O411   1.268       .  A
C407        C545   1.470       .  S
C410        C640   1.473   1_655  S
C412       C1171   1.470       .  S
C413        O414   1.280       .  A
O415        C431   1.267       .  A
O415       Zn421   1.953       .  S
C416        O432   1.273       .  A
C416        O429   1.276       .  A
O417        C430   1.283       .  A
O417      Cd1160   2.118   1_554  S
O418        C436   1.272       .  A
O418       Cd427   2.048       .  S
O419        C433   1.278       .  A
O419       Cd423   2.109       .  S
O420        C431   1.284       .  A
O420       Cd423   2.120       .  S
Zn421       O432   2.003       .  S
Zn421       O434   1.993       .  S
Zn421       O426   1.907       .  S
O422        C433   1.273       .  A
O422      Cd1163   2.043   1_554  S
Cd423       O425   2.118       .  S
Cd423       O426   1.990       .  S
Cd424       O437   2.085       .  S
Cd424      O1153   2.118       .  S
Cd424      O1164   2.052       .  S
Cd424      O1162   1.990       .  S
O425        C435   1.282       .  A
O426      Cd1160   1.990   1_554  S
O426      Cd1163   1.968   1_554  S
Cd427      O1158   2.043       .  S
Cd427      O1165   2.089       .  S
Cd427      O1162   1.968       .  S
O428        C435   1.270   1_556  A
O428      Cd1160   2.052       .  S
O429      Cd1163   2.089   1_554  S
C430        O434   1.268       .  A
C430        C476   1.470       .  S
C431        C459   1.455       .  S
C433        C571   1.473   1_655  S
C435       C1148   1.470   1_554  S
C436        O437   1.280       .  A
C436        C454   1.455       .  S
O438        C454   1.267       .  A
O438       Zn444   1.953       .  S
C439        O455   1.273       .  A
C439        O452   1.276       .  A
O440        C453   1.283       .  A
O440       Cd447   2.118       .  S
O441        C459   1.272       .  A
O441       Cd450   2.048       .  S
O442        C456   1.278       .  A
O442       Cd446   2.109       .  S
O443        C454   1.284       .  A
O443       Cd446   2.120       .  S
Zn444       O455   2.003       .  S
Zn444       O457   1.993       .  S
Zn444       O449   1.907       .  S
O445        C456   1.273       .  A
O445       Cd450   2.043       .  S
Cd446       O448   2.118       .  S
Cd446       O449   1.990       .  S
Cd447       O451   2.052       .  S
Cd447       O460   2.085       .  S
Cd447       O449   1.990       .  S
O448        C458   1.282       .  A
O449       Cd450   1.968       .  S
Cd450       O452   2.089       .  S
O451        C458   1.270       .  A
C453        O457   1.268       .  A
C453        C499   1.470       .  S
C456        C594   1.473   1_655  S
C459        O460   1.280       .  A
O461       C1213   1.267   1_554  A
O461       Zn467   1.953       .  S
C462        O478   1.273       .  A
C462        O475   1.276       .  A
O463        C476   1.283       .  A
O463       Cd470   2.118       .  S
O464        C482   1.271       .  A
O464       Cd473   2.047       .  S
O465        C479   1.278       .  A
O465       Cd469   2.109       .  S
O466       C1213   1.284   1_554  A
O466       Cd469   2.119       .  S
Zn467       O478   2.003       .  S
Zn467       O480   1.993       .  S
Zn467       O472   1.907       .  S
O468        C479   1.273       .  A
O468       Cd473   2.042       .  S
Cd469       O471   2.118       .  S
Cd469       O472   1.990       .  S
Cd470       O474   2.051       .  S
Cd470       O483   2.085       .  S
Cd470       O472   1.990       .  S
O471        C481   1.282       .  A
O472       Cd473   1.968       .  S
Cd473       O475   2.088       .  S
O474        C481   1.270       .  A
C476        O480   1.268       .  A
C477       O1197   1.267       .  A
C477       O1202   1.284       .  A
C477        C505   1.455       .  S
C479        C709   1.473       .  S
C481        C527   1.470       .  S
C482        O483   1.280       .  A
C482        C500   1.455       .  S
O484        C500   1.267       .  A
O484       Zn490   1.953       .  S
C485        O501   1.273       .  A
C485        O498   1.276       .  A
O486        C499   1.283       .  A
O486       Cd493   2.118       .  S
O487        C505   1.271       .  A
O487       Cd496   2.047       .  S
O488        C502   1.279       .  A
O488       Cd492   2.109       .  S
O489        C500   1.284       .  A
O489       Cd492   2.120       .  S
Zn490       O501   2.003       .  S
Zn490       O503   1.993       .  S
Zn490       O495   1.906       .  S
O491        C502   1.273       .  A
O491       Cd496   2.042       .  S
Cd492       O494   2.117       .  S
Cd492       O495   1.990       .  S
Cd493       O497   2.051       .  S
Cd493       O506   2.085       .  S
Cd493       O495   1.989       .  S
O494        C504   1.282       .  A
O495       Cd496   1.967       .  S
Cd496       O498   2.088       .  S
O497        C504   1.270       .  A
C499        O503   1.268       .  A
C502        C732   1.473       .  S
C504        C550   1.470       .  S
C505        O506   1.280       .  A
O507        C523   1.267       .  A
O507       Zn513   1.953       .  S
C508        O524   1.273       .  A
C508        O521   1.276       .  A
O509        C522   1.283       .  A
O509       Cd516   2.118       .  S
O510        C528   1.271       .  A
O510       Cd519   2.048       .  S
O511        C525   1.279       .  A
O511       Cd515   2.109       .  S
O512        C523   1.284       .  A
O512       Cd515   2.120       .  S
Zn513       O524   2.003       .  S
Zn513       O526   1.993       .  S
Zn513       O518   1.906       .  S
O514        C525   1.273       .  A
O514       Cd519   2.042       .  S
Cd515       O517   2.118       .  S
Cd515       O518   1.990       .  S
Cd516       O520   2.052       .  S
Cd516       O529   2.085       .  S
Cd516       O518   1.989       .  S
O517        C527   1.282       .  A
O518       Cd519   1.967       .  S
Cd519       O521   2.089       .  S
O520        C527   1.270       .  A
C522        O526   1.268       .  A
C523        C551   1.455       .  S
C525        C663   1.473       .  S
C528        O529   1.280       .  A
C528        C546   1.455       .  S
O530       C1282   1.267       .  A
O530       Zn536   1.953       .  S
C531        O547   1.273       .  A
C531        O544   1.276       .  A
O532        C545   1.283       .  A
O532       Cd539   2.118       .  S
O533        C551   1.271       .  A
O533       Cd542   2.048       .  S
O534        C548   1.279       .  A
O534       Cd538   2.109       .  S
O535       C1282   1.284       .  A
O535       Cd538   2.119       .  S
Zn536       O547   2.003       .  S
Zn536       O549   1.992       .  S
Zn536       O541   1.907       .  S
O537        C548   1.273       .  A
O537       Cd542   2.042       .  S
Cd538       O540   2.118       .  S
Cd538       O541   1.990       .  S
Cd539       O543   2.051       .  S
Cd539       O552   2.085       .  S
Cd539       O541   1.990       .  S
O540        C550   1.282       .  A
O541       Cd542   1.968       .  S
Cd542       O544   2.089       .  S
O543        C550   1.270       .  A
C545        O549   1.268       .  A
C546       O1266   1.267   1_554  A
C546       O1271   1.284   1_554  A
C548        C686   1.473       .  S
C551        O552   1.280       .  A
O553        C569   1.273       .  A
O553       Zn559   2.002       .  S
C554        O570   1.267       .  A
C554        O567   1.284       .  A
C554        C596   1.455       .  S
O555        C568   1.283       .  A
O555      Cd1298   2.118   1_554  S
O556        C574   1.282       .  A
O556       Cd565   2.117       .  S
O557        C571   1.273       .  A
O557      Cd1297   2.042   1_554  S
O558        C569   1.276       .  A
O558      Cd1297   2.089   1_554  S
Zn559       O570   1.953       .  S
Zn559       O572   1.992       .  S
Zn559       O564   1.907       .  S
O560        C571   1.279       .  A
O560       Cd565   2.109       .  S
Cd561       O563   2.047       .  S
Cd561      O1293   2.042       .  S
Cd561      O1294   2.089       .  S
Cd561      O1300   1.968       .  S
Cd562       O566   2.085       .  S
Cd562      O1291   2.118       .  S
Cd562      O1311   2.052       .  S
Cd562      O1300   1.990       .  S
O563        C573   1.271       .  A
O564       Cd565   1.990       .  S
O564      Cd1297   1.968   1_554  S
O564      Cd1298   1.990   1_554  S
Cd565       O567   2.120       .  S
O566        C573   1.280       .  A
C568        O572   1.268       .  A
C568        C706   1.470       .  S
C573        C577   1.455       .  S
C574        O575   1.270   1_554  A
C574       C1379   1.470   1_554  S
O575      Cd1298   2.052       .  S
O576        C592   1.273       .  A
O576       Zn582   2.002       .  S
C577        O593   1.267       .  A
C577        O590   1.284       .  A
O578        C591   1.283       .  A
O578       Cd585   2.118       .  S
O579        C597   1.282       .  A
O579       Cd588   2.117       .  S
O580        C594   1.273       .  A
O580       Cd584   2.042       .  S
O581        C592   1.276       .  A
O581       Cd584   2.089       .  S
Zn582       O593   1.953       .  S
Zn582       O595   1.992       .  S
Zn582       O587   1.907       .  S
O583        C594   1.279       .  A
O583       Cd588   2.109       .  S
Cd584       O586   2.048       .  S
Cd584       O587   1.968       .  S
Cd585       O589   2.085       .  S
Cd585       O598   2.052       .  S
Cd585       O587   1.990       .  S
O586        C596   1.271       .  A
O587       Cd588   1.990       .  S
Cd588       O590   2.119       .  S
O589        C596   1.280       .  A
C591        O595   1.268       .  A
C591        C729   1.470       .  S
C597        O598   1.270       .  A
C597        C620   1.470       .  S
O599        C615   1.273       .  A
O599       Zn605   2.003       .  S
C600        O616   1.267       .  A
C600        O613   1.284       .  A
C600        C642   1.455       .  S
O601        C614   1.283       .  A
O601       Cd608   2.117       .  S
O602        C620   1.282       .  A
O602       Cd611   2.118       .  S
O603        C617   1.273       .  A
O603       Cd607   2.043       .  S
O604        C615   1.276       .  A
O604       Cd607   2.089       .  S
Zn605       O616   1.953       .  S
Zn605       O618   1.993       .  S
Zn605       O610   1.907       .  S
O606        C617   1.279       .  A
O606       Cd611   2.109       .  S
Cd607       O609   2.048       .  S
Cd607       O610   1.968       .  S
Cd608       O612   2.085       .  S
Cd608       O621   2.052       .  S
Cd608       O610   1.989       .  S
O609        C619   1.272       .  A
O610       Cd611   1.990       .  S
Cd611       O613   2.119       .  S
O612        C619   1.280       .  A
C614        O618   1.268       .  A
C614        C660   1.470       .  S
C619        C623   1.455       .  S
C620        O621   1.270       .  A
O622        C638   1.273       .  A
O622       Zn628   2.003       .  S
C623        O639   1.267       .  A
C623        O636   1.284       .  A
O624        C637   1.283       .  A
O624      Cd1367   2.118       .  S
O625        C643   1.282       .  A
O625       Cd634   2.117       .  S
O626        C640   1.273       .  A
O626      Cd1366   2.043       .  S
O627        C638   1.276       .  A
O627      Cd1366   2.089       .  S
Zn628       O639   1.953       .  S
Zn628       O641   1.993       .  S
Zn628       O633   1.907       .  S
O629        C640   1.278       .  A
O629       Cd634   2.109       .  S
Cd630       O632   2.048       .  S
Cd630      O1362   2.043   1_554  S
Cd630      O1363   2.089   1_554  S
Cd630      O1369   1.968   1_554  S
Cd631       O635   2.085       .  S
Cd631      O1360   2.118   1_554  S
Cd631      O1380   2.052       .  S
Cd631      O1369   1.990   1_554  S
O632        C642   1.271       .  A
O633       Cd634   1.990       .  S
O633      Cd1366   1.968       .  S
O633      Cd1367   1.990       .  S
Cd634       O636   2.119       .  S
O635        C642   1.280       .  A
C637        O641   1.268       .  A
C637        C683   1.470       .  S
C643        O644   1.270       .  A
C643       C1310   1.470       .  S
O644      Cd1367   2.052       .  S
O645        C661   1.273       .  A
O645       Zn651   2.002       .  S
C646        O662   1.267       .  A
C646        O659   1.284       .  A
C646        C688   1.455       .  S
O647        C660   1.283       .  A
O647       Cd654   2.118       .  S
O648        C666   1.282       .  A
O648       Cd657   2.117       .  S
O649        C663   1.273       .  A
O649       Cd653   2.042       .  S
O650        C661   1.276       .  A
O650       Cd653   2.089       .  S
Zn651       O662   1.953       .  S
Zn651       O664   1.992       .  S
Zn651       O656   1.906       .  S
O652        C663   1.278       .  A
O652       Cd657   2.109       .  S
Cd653       O655   2.047       .  S
Cd653       O656   1.967       .  S
Cd654       O658   2.085       .  S
Cd654       O667   2.052       .  S
Cd654       O656   1.990       .  S
O655        C665   1.271       .  A
O656       Cd657   1.990       .  S
Cd657       O659   2.119       .  S
O658        C665   1.280       .  A
C660        O664   1.268       .  A
C665        C669   1.455       .  S
C666        O667   1.270       .  A
C666        C712   1.470       .  S
O668        C684   1.273       .  A
O668       Zn674   2.003       .  S
C669       O1421   1.267   1_554  A
C669       O1418   1.284   1_554  A
O670        C683   1.283       .  A
O670       Cd677   2.118       .  S
O671        C689   1.282       .  A
O671       Cd680   2.117       .  S
O672        C686   1.273       .  A
O672       Cd676   2.042       .  S
O673        C684   1.276       .  A
O673       Cd676   2.089       .  S
Zn674       O685   1.953       .  S
Zn674       O687   1.992       .  S
Zn674       O679   1.906       .  S
O675        C686   1.279       .  A
O675       Cd680   2.109       .  S
Cd676       O678   2.048       .  S
Cd676       O679   1.967       .  S
Cd677       O681   2.085       .  S
Cd677       O690   2.052       .  S
Cd677       O679   1.989       .  S
O678        C688   1.271       .  A
O679       Cd680   1.990       .  S
Cd680       O682   2.119       .  S
O681        C688   1.280       .  A
O682       C1405   1.284       .  A
C683        O687   1.268       .  A
O685       C1405   1.267       .  A
C689        O690   1.270       .  A
C689        C735   1.470       .  S
O691        C707   1.273       .  A
O691       Zn697   2.003       .  S
C692       O1444   1.267       .  A
C692       O1441   1.284       .  A
C692        C734   1.455       .  S
O693        C706   1.283       .  A
O693       Cd700   2.117       .  S
O694        C712   1.282       .  A
O694       Cd703   2.117       .  S
O695        C709   1.273       .  A
O695       Cd699   2.042       .  S
O696        C707   1.276       .  A
O696       Cd699   2.088       .  S
Zn697       O708   1.953       .  S
Zn697       O710   1.993       .  S
Zn697       O702   1.906       .  S
O698        C709   1.279       .  A
O698       Cd703   2.109       .  S
Cd699       O701   2.048       .  S
Cd699       O702   1.967       .  S
Cd700       O704   2.085       .  S
Cd700       O713   2.051       .  S
Cd700       O702   1.989       .  S
O701        C711   1.271       .  A
O702       Cd703   1.990       .  S
Cd703       O705   2.119       .  S
O704        C711   1.280       .  A
O705       C1428   1.284   1_554  A
C706        O710   1.268       .  A
O708       C1428   1.267   1_554  A
C711        C715   1.455       .  S
C712        O713   1.270       .  A
O714        C730   1.273       .  A
O714       Zn720   2.003       .  S
C715        O731   1.267       .  A
C715        O728   1.284       .  A
O716        C729   1.283       .  A
O716       Cd723   2.118       .  S
O717        C735   1.282       .  A
O717       Cd726   2.117       .  S
O718        C732   1.273       .  A
O718       Cd722   2.042       .  S
O719        C730   1.276       .  A
O719       Cd722   2.089       .  S
Zn720       O731   1.953       .  S
Zn720       O733   1.993       .  S
Zn720       O725   1.906       .  S
O721        C732   1.279       .  A
O721       Cd726   2.109       .  S
Cd722       O724   2.048       .  S
Cd722       O725   1.967       .  S
Cd723       O727   2.085       .  S
Cd723       O736   2.051       .  S
Cd723       O725   1.989       .  S
O724        C734   1.271       .  A
O725       Cd726   1.990       .  S
Cd726       O728   2.119       .  S
O727        C734   1.280       .  A
C729        O733   1.268       .  A
C735        O736   1.270       .  A
O737        C753   1.273       .  A
O737       Zn743   2.002       .  S
C738        C780   1.455       .  S
O739        C752   1.283       .  A
O739       Cd746   2.118       .  S
O740        C758   1.282       .  A
O740       Cd749   2.117       .  S
O741        C755   1.273       .  A
O741       Cd745   2.042       .  S
O742        C753   1.276       .  A
O742       Cd745   2.089       .  S
Zn743       O754   1.952       .  S
Zn743       O756   1.992       .  S
Zn743       O748   1.907       .  S
O744        C755   1.278       .  A
O744       Cd749   2.109       .  S
Cd745       O747   2.048       .  S
Cd745       O748   1.968       .  S
Cd746       O750   2.085       .  S
Cd746       O759   2.052       .  S
Cd746       O748   1.990       .  S
O747        C757   1.271       .  A
O748       Cd749   1.990       .  S
Cd749       O751   2.119       .  S
O750        C757   1.280       .  A
C752        O756   1.268       .  A
C752        C798   1.470       .  S
C753       C1198   1.471       .  S
C755        C985   1.473       .  S
C757        C761   1.455       .  S
C758        O759   1.270       .  A
C758        C896   1.470   1_565  S
O760        C776   1.273       .  A
O760       Zn766   2.002       .  S
C761        O777   1.267       .  A
C761        O774   1.284       .  A
O762        C775   1.283       .  A
O762       Cd769   2.118       .  S
O763        C781   1.282       .  A
O763       Cd772   2.117       .  S
O764        C778   1.273       .  A
O764       Cd768   2.042       .  S
O765        C776   1.276       .  A
O765       Cd768   2.089       .  S
Zn766       O777   1.953       .  S
Zn766       O779   1.992       .  S
Zn766       O771   1.907       .  S
O767        C778   1.278       .  A
O767       Cd772   2.109       .  S
Cd768       O770   2.047       .  S
Cd768       O771   1.968       .  S
Cd769       O773   2.085       .  S
Cd769       O782   2.052       .  S
Cd769       O771   1.990       .  S
O770        C780   1.271       .  A
O771       Cd772   1.990       .  S
Cd772       O774   2.119       .  S
O773        C780   1.280       .  A
C775        O779   1.268       .  A
C775        C821   1.470       .  S
C776       C1221   1.471       .  S
C778       C1008   1.473       .  S
C781        O782   1.270       .  A
C781        C919   1.470   1_565  S
O783        C799   1.273       .  A
O783       Zn789   2.004       .  S
C784        O800   1.267       .  A
C784        O797   1.284       .  A
C784        C826   1.455       .  S
O785        C798   1.283       .  A
O786        C804   1.282       .  A
O786       Cd795   2.118       .  S
O787        C801   1.273       .  A
O788        C799   1.276       .  A
Zn789       O800   1.953       .  S
Zn789       O802   1.993       .  S
Zn789       O794   1.907       .  S
O790        C801   1.278       .  A
O790       Cd795   2.109       .  S
Cd791       O793   2.048       .  S
Cd792       O796   2.085       .  S
O793        C803   1.271       .  A
O794       Cd795   1.990       .  S
Cd795       O797   2.120       .  S
O796        C803   1.280       .  A
C798        O802   1.268       .  A
C799       C1152   1.471       .  S
C801        C939   1.473   1_655  S
C803        C807   1.455       .  S
C804        O805   1.270       .  A
O806        C822   1.273       .  A
O806       Zn812   2.004       .  S
C807        O823   1.267       .  A
C807        O820   1.284       .  A
O808        C821   1.283       .  A
O808       Cd815   2.117       .  S
O809        C827   1.282       .  A
O809       Cd818   2.118       .  S
O810        C824   1.273       .  A
O810       Cd814   2.042       .  S
O811        C822   1.276       .  A
O811       Cd814   2.089       .  S
Zn812       O823   1.953       .  S
Zn812       O825   1.993       .  S
Zn812       O817   1.906       .  S
O813        C824   1.279       .  A
O813       Cd818   2.110       .  S
Cd814       O816   2.048       .  S
Cd814       O817   1.967       .  S
Cd815       O819   2.085       .  S
Cd815       O828   2.051       .  S
Cd815       O817   1.989       .  S
O816        C826   1.271       .  A
O817       Cd818   1.990       .  S
Cd818       O820   2.120       .  S
O819        C826   1.280       .  A
C821        O825   1.268       .  A
C822       C1175   1.471       .  S
C824        C962   1.473   1_655  S
C827        O828   1.270       .  A
C827        C850   1.470   1_565  S
O829        C845   1.273       .  A
O829       Zn835   2.003       .  S
C830        O846   1.267       .  A
C830        O843   1.284       .  A
C830        C872   1.455       .  S
O831        C844   1.283       .  A
O831       Cd838   2.118       .  S
O832        C850   1.282       .  A
O832       Cd841   2.118       .  S
O833        C847   1.273       .  A
O833       Cd837   2.042       .  S
O834        C845   1.276       .  A
O834       Cd837   2.089       .  S
Zn835       O846   1.953       .  S
Zn835       O848   1.992       .  S
Zn835       O840   1.907       .  S
O836        C847   1.279       .  A
O836       Cd841   2.109       .  S
Cd837       O839   2.048       .  S
Cd837       O840   1.968       .  S
Cd838       O842   2.085       .  S
Cd838       O851   2.052       .  S
Cd838       O840   1.990       .  S
O839        C849   1.271       .  A
O840       Cd841   1.990       .  S
Cd841       O843   2.120       .  S
O842        C849   1.280       .  A
C844        O848   1.268       .  A
C844        C890   1.470       .  S
C845       C1106   1.471       .  S
C847       C1077   1.473   1_655  S
C849        C853   1.455       .  S
C850        O851   1.270       .  A
O852        C868   1.273       .  A
O852       Zn858   2.003       .  S
C853        O869   1.267       .  A
C853        O866   1.284       .  A
O854        C867   1.283       .  A
O855        C873   1.282       .  A
O855       Cd864   2.118       .  S
O856        C870   1.273       .  A
O857        C868   1.276       .  A
Zn858       O869   1.953       .  S
Zn858       O871   1.993       .  S
Zn858       O863   1.907       .  S
O859        C870   1.279       .  A
O859       Cd864   2.109       .  S
Cd860       O862   2.048       .  S
Cd861       O865   2.085       .  S
O862        C872   1.271       .  A
O863       Cd864   1.990       .  S
Cd864       O866   2.120       .  S
O865        C872   1.280       .  A
C867        O871   1.268       .  A
C867        C913   1.470       .  S
C868       C1129   1.471       .  S
C870       C1100   1.473   1_655  S
C873        O874   1.270   1_556  A
O875        C891   1.273       .  A
O875       Zn881   2.003       .  S
C876        O892   1.267       .  A
C876        O889   1.284       .  A
C876        C918   1.455       .  S
O877        C890   1.283       .  A
O877       Cd884   2.117       .  S
O878        C896   1.282       .  A
O878       Cd887   2.117       .  S
O879        C893   1.273       .  A
O879       Cd883   2.043       .  S
O880        C891   1.276       .  A
O880       Cd883   2.089       .  S
Zn881       O892   1.953       .  S
Zn881       O894   1.993       .  S
Zn881       O886   1.907       .  S
O882        C893   1.279       .  A
O882       Cd887   2.109       .  S
Cd883       O885   2.048       .  S
Cd883       O886   1.968       .  S
Cd884       O888   2.084       .  S
Cd884       O897   2.051       .  S
Cd884       O886   1.989       .  S
O885        C895   1.272       .  A
O886       Cd887   1.990       .  S
Cd887       O889   2.119       .  S
O888        C895   1.280       .  A
C890        O894   1.268       .  A
C891       C1244   1.471       .  S
C893       C1031   1.473       .  S
C895        C899   1.455       .  S
C896        O897   1.270       .  A
O898        C914   1.273       .  A
O898       Zn904   2.003       .  S
O900        C913   1.283       .  A
O900       Cd907   2.118       .  S
O901        C919   1.282       .  A
O901       Cd910   2.117       .  S
O902        C916   1.273       .  A
O902       Cd906   2.043       .  S
O903        C914   1.276       .  A
O903       Cd906   2.089       .  S
Zn904       O915   1.953       .  S
Zn904       O917   1.993       .  S
Zn904       O909   1.907       .  S
O905        C916   1.279       .  A
O905       Cd910   2.109       .  S
Cd906       O908   2.048       .  S
Cd906       O909   1.968       .  S
Cd907       O911   2.085       .  S
Cd907       O920   2.052       .  S
Cd907       O909   1.990       .  S
O908        C918   1.271       .  A
O909       Cd910   1.990       .  S
Cd910       O912   2.119       .  S
O911        C918   1.280       .  A
C913        O917   1.268       .  A
C914       C1267   1.471       .  S
C916       C1054   1.473       .  S
C919        O920   1.270       .  A
O921        C937   1.267       .  A
O921       Zn927   1.953       .  S
C922        O938   1.273       .  A
C922        O935   1.276       .  A
C922       C1305   1.471       .  S
O923        C936   1.283       .  A
O924        C942   1.271       .  A
O924       Cd933   2.048       .  S
O925        C939   1.279       .  A
O925       Cd929   2.109       .  S
O926        C937   1.284       .  A
O926       Cd929   2.120       .  S
Zn927       O938   2.003       .  S
Zn927       O940   1.993       .  S
Zn927       O932   1.906       .  S
O928        C939   1.273       .  A
Cd929       O931   2.117       .  S
Cd929       O932   1.990       .  S
Cd930       O943   2.085       .  S
O931        C941   1.282       .  A
O934        C941   1.270       .  A
C936        O940   1.268       .  A
C936        C982   1.470       .  S
C937        C965   1.455       .  S
C942        O943   1.280       .  A
C942        C960   1.455       .  S
O944        C960   1.267       .  A
O944       Zn950   1.953       .  S
C945        O961   1.273       .  A
C945        O958   1.276       .  A
C945       C1328   1.471       .  S
O946        C959   1.283       .  A
O946       Cd953   2.118       .  S
O947        C965   1.271       .  A
O947       Cd956   2.048       .  S
O948        C962   1.279       .  A
O948       Cd952   2.109       .  S
O949        C960   1.284       .  A
O949       Cd952   2.119       .  S
Zn950       O961   2.003       .  S
Zn950       O963   1.993       .  S
Zn950       O955   1.907       .  S
O951        C962   1.273       .  A
O951       Cd956   2.042       .  S
Cd952       O954   2.118       .  S
Cd952       O955   1.990       .  S
Cd953       O957   2.051       .  S
Cd953       O966   2.085       .  S
Cd953       O955   1.990       .  S
O954        C964   1.282       .  A
O955       Cd956   1.967       .  S
Cd956       O958   2.089       .  S
O957        C964   1.270       .  A
C959        O963   1.268       .  A
C959       C1005   1.470       .  S
C964       C1079   1.470   1_565  S
C965        O966   1.280       .  A
O967       Zn973   1.953       .  S
C968        O984   1.273       .  A
C968        O981   1.276       .  A
C968       C1443   1.471       .  S
O969        C982   1.283       .  A
O969       Cd976   2.118       .  S
O970        C988   1.271       .  A
O970       Cd979   2.048       .  S
O971        C985   1.279       .  A
O971       Cd975   2.109       .  S
O972       Cd975   2.119       .  S
Zn973       O984   2.002       .  S
Zn973       O986   1.992       .  S
Zn973       O978   1.906       .  S
O974        C985   1.273       .  A
O974       Cd979   2.043       .  S
Cd975       O977   2.117       .  S
Cd975       O978   1.990       .  S
Cd976       O980   2.052       .  S
Cd976       O989   2.085       .  S
Cd976       O978   1.990       .  S
O977        C987   1.282       .  A
O978       Cd979   1.968       .  S
Cd979       O981   2.089       .  S
O980        C987   1.270       .  A
C982        O986   1.268       .  A
C983       C1011   1.455       .  S
C987       C1033   1.470   1_565  S
C988        O989   1.280       .  A
C988       C1006   1.455       .  S
O990       C1006   1.267       .  A
O990       Zn996   1.953       .  S
C991       O1007   1.273       .  A
C991       O1004   1.276       .  A
C991       C1466   1.471       .  S
O992       C1005   1.283       .  A
O992       Cd999   2.118       .  S
O993       C1011   1.272       .  A
O993      Cd1002   2.048       .  S
O994       C1008   1.279       .  A
O994       Cd998   2.109       .  S
O995       C1006   1.284       .  A
O995       Cd998   2.119       .  S
Zn996      O1007   2.002       .  S
Zn996      O1009   1.992       .  S
Zn996      O1001   1.907       .  S
O997       C1008   1.273       .  A
O997      Cd1002   2.043       .  S
Cd998      O1000   2.117       .  S
Cd998      O1001   1.990       .  S
Cd999      O1003   2.052       .  S
Cd999      O1012   2.085       .  S
Cd999      O1001   1.990       .  S
O1000      C1010   1.282       .  A
O1001     Cd1002   1.968       .  S
Cd1002     O1004   2.089       .  S
O1003      C1010   1.270       .  A
C1005      O1009   1.268       .  A
C1010      C1056   1.470   1_565  S
C1011      O1012   1.280       .  A
O1013      C1029   1.267       .  A
O1013     Zn1019   1.953       .  S
C1014      O1030   1.273       .  A
C1014      O1027   1.276       .  A
C1014      C1397   1.471       .  S
O1015      C1028   1.283       .  A
O1015     Cd1022   2.118       .  S
O1016      C1034   1.271       .  A
O1016     Cd1025   2.047       .  S
O1017      C1031   1.278       .  A
O1017     Cd1021   2.109       .  S
O1018      C1029   1.284       .  A
O1018     Cd1021   2.119       .  S
Zn1019     O1030   2.003       .  S
Zn1019     O1032   1.992       .  S
Zn1019     O1024   1.907       .  S
O1020      C1031   1.273       .  A
O1020     Cd1025   2.042       .  S
Cd1021     O1023   2.117       .  S
Cd1021     O1024   1.990       .  S
Cd1022     O1026   2.052       .  S
Cd1022     O1035   2.085       .  S
Cd1022     O1024   1.990       .  S
O1023      C1033   1.282       .  A
O1024     Cd1025   1.968       .  S
Cd1025     O1027   2.088       .  S
O1026      C1033   1.270       .  A
C1028      O1032   1.268       .  A
C1028      C1074   1.470       .  S
C1029      C1057   1.455       .  S
C1034      O1035   1.280       .  A
C1034      C1052   1.455       .  S
O1036     Zn1042   1.953       .  S
C1037      O1053   1.273       .  A
C1037      O1050   1.276       .  A
C1037      C1420   1.471       .  S
O1038      C1051   1.283       .  A
O1038     Cd1045   2.117       .  S
O1039      C1057   1.271       .  A
O1039     Cd1048   2.048       .  S
O1040      C1054   1.279       .  A
O1040     Cd1044   2.109       .  S
O1041     Cd1044   2.119       .  S
Zn1042     O1053   2.003       .  S
Zn1042     O1055   1.993       .  S
Zn1042     O1047   1.907       .  S
O1043      C1054   1.273       .  A
O1043     Cd1048   2.042       .  S
Cd1044     O1046   2.117       .  S
Cd1044     O1047   1.990       .  S
Cd1045     O1049   2.052       .  S
Cd1045     O1058   2.085       .  S
Cd1045     O1047   1.989       .  S
O1046      C1056   1.282       .  A
O1047     Cd1048   1.968       .  S
Cd1048     O1050   2.089       .  S
O1049      C1056   1.270       .  A
C1051      O1055   1.268       .  A
C1051      C1097   1.470       .  S
C1057      O1058   1.280       .  A
O1059      C1075   1.267       .  A
O1059     Zn1065   1.953       .  S
C1060      O1076   1.273       .  A
C1060      O1073   1.276       .  A
C1060      C1351   1.471       .  S
O1061      C1074   1.283       .  A
O1061     Cd1068   2.118       .  S
O1062      C1080   1.272       .  A
O1062     Cd1071   2.048       .  S
O1063      C1077   1.279       .  A
O1063     Cd1067   2.109       .  S
O1064      C1075   1.284       .  A
O1064     Cd1067   2.120       .  S
Zn1065     O1076   2.003       .  S
Zn1065     O1078   1.993       .  S
Zn1065     O1070   1.906       .  S
O1066      C1077   1.273       .  A
O1066     Cd1071   2.042       .  S
Cd1067     O1069   2.118       .  S
Cd1067     O1070   1.990       .  S
Cd1068     O1072   2.052       .  S
Cd1068     O1081   2.085       .  S
Cd1068     O1070   1.989       .  S
O1069      C1079   1.282       .  A
O1070     Cd1071   1.967       .  S
Cd1071     O1073   2.089       .  S
O1072      C1079   1.270       .  A
C1074      O1078   1.268       .  A
C1075      C1103   1.455       .  S
C1080      O1081   1.280       .  A
C1080      C1098   1.455       .  S
O1082      C1098   1.267       .  A
O1082     Zn1088   1.953       .  S
C1083      O1099   1.273       .  A
C1083      O1096   1.276       .  A
C1083      C1374   1.471       .  S
O1084      C1097   1.283       .  A
O1085      C1103   1.271       .  A
O1085     Cd1094   2.048       .  S
O1086      C1100   1.278       .  A
O1086     Cd1090   2.109       .  S
O1087      C1098   1.284       .  A
O1087     Cd1090   2.120       .  S
Zn1088     O1099   2.003       .  S
Zn1088     O1101   1.992       .  S
Zn1088     O1093   1.906       .  S
O1089      C1100   1.273       .  A
Cd1090     O1092   2.118       .  S
Cd1090     O1093   1.990       .  S
Cd1091     O1104   2.085       .  S
O1092      C1102   1.282       .  A
O1095      C1102   1.270   1_554  A
C1097      O1101   1.268       .  A
C1103      O1104   1.280       .  A
O1105      C1121   1.267       .  A
O1105     Zn1111   1.953       .  S
C1106      O1122   1.273       .  A
C1106      O1119   1.276       .  A
O1107      C1120   1.283       .  A
O1107     Cd1114   2.118       .  S
O1108      C1126   1.271       .  A
O1108     Cd1117   2.047       .  S
O1109      C1123   1.279       .  A
O1109     Cd1113   2.109       .  S
O1110      C1121   1.284       .  A
O1110     Cd1113   2.119       .  S
Zn1111     O1122   2.003       .  S
Zn1111     O1124   1.993       .  S
Zn1111     O1116   1.907       .  S
O1112      C1123   1.273       .  A
O1112     Cd1117   2.042       .  S
Cd1113     O1115   2.118       .  S
Cd1113     O1116   1.990       .  S
Cd1114     O1118   2.052       .  S
Cd1114     O1127   2.085       .  S
Cd1114     O1116   1.990       .  S
O1115      C1125   1.282       .  A
O1116     Cd1117   1.968       .  S
Cd1117     O1119   2.089       .  S
O1118      C1125   1.270       .  A
C1120      O1124   1.268       .  A
C1120      C1258   1.470       .  S
C1121      C1149   1.455       .  S
C1123      C1353   1.473   1_655  S
C1125      C1194   1.470       .  S
C1126      O1127   1.280       .  A
C1126      C1144   1.455       .  S
O1128      C1144   1.267       .  A
O1128     Zn1134   1.953       .  S
C1129      O1145   1.273       .  A
C1129      O1142   1.276       .  A
O1130      C1143   1.283       .  A
O1131      C1149   1.271       .  A
O1131     Cd1140   2.048       .  S
O1132      C1146   1.279       .  A
O1132     Cd1136   2.110       .  S
O1133      C1144   1.284       .  A
O1133     Cd1136   2.120       .  S
Zn1134     O1145   2.003       .  S
Zn1134     O1147   1.993       .  S
Zn1134     O1139   1.907       .  S
O1135      C1146   1.273       .  A
Cd1136     O1138   2.118       .  S
Cd1136     O1139   1.990       .  S
Cd1137     O1150   2.085       .  S
O1138      C1148   1.282       .  A
O1141      C1148   1.270   1_554  A
C1143      O1147   1.268       .  A
C1143      C1281   1.470       .  S
C1146      C1376   1.473   1_655  S
C1149      O1150   1.280       .  A
O1151      C1167   1.267       .  A
O1151     Zn1157   1.953       .  S
C1152      O1168   1.273       .  A
C1152      O1165   1.276       .  A
O1153      C1166   1.283       .  A
O1154      C1172   1.272       .  A
O1154     Cd1163   2.048       .  S
O1155      C1169   1.278       .  A
O1155     Cd1159   2.109       .  S
O1156      C1167   1.284       .  A
O1156     Cd1159   2.120       .  S
Zn1157     O1168   2.003       .  S
Zn1157     O1170   1.993       .  S
Zn1157     O1162   1.907       .  S
O1158      C1169   1.273       .  A
Cd1159     O1161   2.118       .  S
Cd1159     O1162   1.990       .  S
Cd1160     O1173   2.085       .  S
O1161      C1171   1.282       .  A
O1164      C1171   1.270       .  A
C1166      O1170   1.268       .  A
C1166      C1212   1.470       .  S
C1167      C1195   1.455       .  S
C1169      C1307   1.473   1_655  S
C1172      O1173   1.280       .  A
C1172      C1190   1.455       .  S
O1174      C1190   1.267       .  A
O1174     Zn1180   1.953       .  S
C1175      O1191   1.273       .  A
C1175      O1188   1.276       .  A
O1176      C1189   1.283       .  A
O1176     Cd1183   2.118       .  S
O1177      C1195   1.272       .  A
O1177     Cd1186   2.048       .  S
O1178      C1192   1.278       .  A
O1178     Cd1182   2.109       .  S
O1179      C1190   1.284       .  A
O1179     Cd1182   2.120       .  S
Zn1180     O1191   2.003       .  S
Zn1180     O1193   1.993       .  S
Zn1180     O1185   1.907       .  S
O1181      C1192   1.273       .  A
O1181     Cd1186   2.043       .  S
Cd1182     O1184   2.118       .  S
Cd1182     O1185   1.990       .  S
Cd1183     O1187   2.052       .  S
Cd1183     O1196   2.085       .  S
Cd1183     O1185   1.990       .  S
O1184      C1194   1.282       .  A
O1185     Cd1186   1.968       .  S
Cd1186     O1188   2.089       .  S
O1187      C1194   1.270       .  A
C1189      O1193   1.268       .  A
C1189      C1235   1.470       .  S
C1192      C1330   1.473   1_655  S
C1195      O1196   1.280       .  A
O1197     Zn1203   1.953       .  S
C1198      O1214   1.273       .  A
C1198      O1211   1.276       .  A
O1199      C1212   1.283       .  A
O1199     Cd1206   2.118       .  S
O1200      C1218   1.271       .  A
O1200     Cd1209   2.047       .  S
O1201      C1215   1.278       .  A
O1201     Cd1205   2.109       .  S
O1202     Cd1205   2.119       .  S
Zn1203     O1214   2.003       .  S
Zn1203     O1216   1.993       .  S
Zn1203     O1208   1.907       .  S
O1204      C1215   1.273       .  A
O1204     Cd1209   2.042       .  S
Cd1205     O1207   2.118       .  S
Cd1205     O1208   1.990       .  S
Cd1206     O1210   2.051       .  S
Cd1206     O1219   2.085       .  S
Cd1206     O1208   1.990       .  S
O1207      C1217   1.282       .  A
O1208     Cd1209   1.968       .  S
Cd1209     O1211   2.088       .  S
O1210      C1217   1.270       .  A
C1212      O1216   1.268       .  A
C1213      C1241   1.455       .  S
C1215      C1445   1.473       .  S
C1217      C1263   1.470       .  S
C1218      O1219   1.280       .  A
C1218      C1236   1.455       .  S
O1220      C1236   1.267       .  A
O1220     Zn1226   1.953       .  S
C1221      O1237   1.273       .  A
C1221      O1234   1.276       .  A
O1222      C1235   1.283       .  A
O1222     Cd1229   2.118       .  S
O1223      C1241   1.271       .  A
O1223     Cd1232   2.047       .  S
O1224      C1238   1.279       .  A
O1224     Cd1228   2.109       .  S
O1225      C1236   1.284       .  A
O1225     Cd1228   2.120       .  S
Zn1226     O1237   2.003       .  S
Zn1226     O1239   1.993       .  S
Zn1226     O1231   1.906       .  S
O1227      C1238   1.273       .  A
O1227     Cd1232   2.042       .  S
Cd1228     O1230   2.117       .  S
Cd1228     O1231   1.990       .  S
Cd1229     O1233   2.051       .  S
Cd1229     O1242   2.085       .  S
Cd1229     O1231   1.989       .  S
O1230      C1240   1.282       .  A
O1231     Cd1232   1.967       .  S
Cd1232     O1234   2.088       .  S
O1233      C1240   1.270       .  A
C1235      O1239   1.268       .  A
C1238      C1468   1.473       .  S
C1240      C1286   1.470       .  S
C1241      O1242   1.280       .  A
O1243      C1259   1.267       .  A
O1243     Zn1249   1.953       .  S
C1244      O1260   1.273       .  A
C1244      O1257   1.276       .  A
O1245      C1258   1.283       .  A
O1245     Cd1252   2.118       .  S
O1246      C1264   1.271       .  A
O1246     Cd1255   2.048       .  S
O1247      C1261   1.279       .  A
O1247     Cd1251   2.109       .  S
O1248      C1259   1.284       .  A
O1248     Cd1251   2.120       .  S
Zn1249     O1260   2.003       .  S
Zn1249     O1262   1.993       .  S
Zn1249     O1254   1.906       .  S
O1250      C1261   1.273       .  A
O1250     Cd1255   2.042       .  S
Cd1251     O1253   2.118       .  S
Cd1251     O1254   1.990       .  S
Cd1252     O1256   2.052       .  S
Cd1252     O1265   2.085       .  S
Cd1252     O1254   1.989       .  S
O1253      C1263   1.282       .  A
O1254     Cd1255   1.967       .  S
Cd1255     O1257   2.089       .  S
O1256      C1263   1.270       .  A
C1258      O1262   1.268       .  A
C1259      C1287   1.455       .  S
C1261      C1399   1.473       .  S
C1264      O1265   1.280       .  A
C1264      C1282   1.455       .  S
O1266     Zn1272   1.953       .  S
C1267      O1283   1.273       .  A
C1267      O1280   1.276       .  A
O1268      C1281   1.283       .  A
O1268     Cd1275   2.118       .  S
O1269      C1287   1.271       .  A
O1269     Cd1278   2.048       .  S
O1270      C1284   1.279       .  A
O1270     Cd1274   2.109       .  S
O1271     Cd1274   2.119       .  S
Zn1272     O1283   2.003       .  S
Zn1272     O1285   1.992       .  S
Zn1272     O1277   1.907       .  S
O1273      C1284   1.273       .  A
O1273     Cd1278   2.042       .  S
Cd1274     O1276   2.118       .  S
Cd1274     O1277   1.990       .  S
Cd1275     O1279   2.051       .  S
Cd1275     O1288   2.085       .  S
Cd1275     O1277   1.990       .  S
O1276      C1286   1.282       .  A
O1277     Cd1278   1.968       .  S
Cd1278     O1280   2.089       .  S
O1279      C1286   1.270       .  A
C1281      O1285   1.268       .  A
C1284      C1422   1.473       .  S
C1287      O1288   1.280       .  A
O1289      C1305   1.273       .  A
O1289     Zn1295   2.002       .  S
C1290      O1306   1.267       .  A
C1290      O1303   1.284       .  A
C1290      C1332   1.455       .  S
O1291      C1304   1.283       .  A
O1292      C1310   1.282       .  A
O1292     Cd1301   2.117       .  S
O1293      C1307   1.273       .  A
O1294      C1305   1.276       .  A
Zn1295     O1306   1.953       .  S
Zn1295     O1308   1.992       .  S
Zn1295     O1300   1.907       .  S
O1296      C1307   1.279       .  A
O1296     Cd1301   2.109       .  S
Cd1297     O1299   2.047       .  S
Cd1298     O1302   2.085       .  S
O1299      C1309   1.271       .  A
O1300     Cd1301   1.990       .  S
Cd1301     O1303   2.120       .  S
O1302      C1309   1.280       .  A
C1304      O1308   1.268       .  A
C1304      C1442   1.470       .  S
C1309      C1313   1.455       .  S
C1310      O1311   1.270       .  A
O1312      C1328   1.273       .  A
O1312     Zn1318   2.002       .  S
C1313      O1329   1.267       .  A
C1313      O1326   1.284       .  A
O1314      C1327   1.283       .  A
O1314     Cd1321   2.118       .  S
O1315      C1333   1.282       .  A
O1315     Cd1324   2.117       .  S
O1316      C1330   1.273       .  A
O1316     Cd1320   2.042       .  S
O1317      C1328   1.276       .  A
O1317     Cd1320   2.089       .  S
Zn1318     O1329   1.953       .  S
Zn1318     O1331   1.992       .  S
Zn1318     O1323   1.907       .  S
O1319      C1330   1.279       .  A
O1319     Cd1324   2.109       .  S
Cd1320     O1322   2.047       .  S
Cd1320     O1323   1.968       .  S
Cd1321     O1325   2.085       .  S
Cd1321     O1334   2.052       .  S
Cd1321     O1323   1.990       .  S
O1322      C1332   1.271       .  A
O1323     Cd1324   1.990       .  S
Cd1324     O1326   2.119       .  S
O1325      C1332   1.280       .  A
C1327      O1331   1.268       .  A
C1327      C1465   1.470       .  S
C1333      O1334   1.270       .  A
C1333      C1356   1.470       .  S
O1335      C1351   1.273       .  A
O1335     Zn1341   2.003       .  S
C1336      O1352   1.267       .  A
C1336      O1349   1.284       .  A
C1336      C1378   1.455       .  S
O1337      C1350   1.283       .  A
O1337     Cd1344   2.117       .  S
O1338      C1356   1.282       .  A
O1338     Cd1347   2.118       .  S
O1339      C1353   1.273       .  A
O1339     Cd1343   2.043       .  S
O1340      C1351   1.276       .  A
O1340     Cd1343   2.089       .  S
Zn1341     O1352   1.953       .  S
Zn1341     O1354   1.993       .  S
Zn1341     O1346   1.907       .  S
O1342      C1353   1.279       .  A
O1342     Cd1347   2.109       .  S
Cd1343     O1345   2.048       .  S
Cd1343     O1346   1.968       .  S
Cd1344     O1348   2.085       .  S
Cd1344     O1357   2.052       .  S
Cd1344     O1346   1.989       .  S
O1345      C1355   1.272       .  A
O1346     Cd1347   1.990       .  S
Cd1347     O1349   2.119       .  S
O1348      C1355   1.280       .  A
C1350      O1354   1.268       .  A
C1350      C1396   1.470       .  S
C1355      C1359   1.455       .  S
C1356      O1357   1.270       .  A
O1358      C1374   1.273       .  A
O1358     Zn1364   2.003       .  S
C1359      O1375   1.267       .  A
C1359      O1372   1.284       .  A
O1360      C1373   1.283       .  A
O1361      C1379   1.282       .  A
O1361     Cd1370   2.117       .  S
O1362      C1376   1.273       .  A
O1363      C1374   1.276       .  A
Zn1364     O1375   1.953       .  S
Zn1364     O1377   1.993       .  S
Zn1364     O1369   1.907       .  S
O1365      C1376   1.278       .  A
O1365     Cd1370   2.109       .  S
Cd1366     O1368   2.048       .  S
Cd1367     O1371   2.085       .  S
O1368      C1378   1.272       .  A
O1369     Cd1370   1.990       .  S
Cd1370     O1372   2.119       .  S
O1371      C1378   1.280       .  A
C1373      O1377   1.268       .  A
C1373      C1419   1.470       .  S
C1379      O1380   1.270   1_556  A
O1381      C1397   1.273       .  A
O1381     Zn1387   2.002       .  S
C1382      O1398   1.267       .  A
C1382      O1395   1.284       .  A
C1382      C1424   1.455       .  S
O1383      C1396   1.283       .  A
O1383     Cd1390   2.118       .  S
O1384      C1402   1.282       .  A
O1384     Cd1393   2.117       .  S
O1385      C1399   1.273       .  A
O1385     Cd1389   2.042       .  S
O1386      C1397   1.276       .  A
O1386     Cd1389   2.089       .  S
Zn1387     O1398   1.953       .  S
Zn1387     O1400   1.992       .  S
Zn1387     O1392   1.906       .  S
O1388      C1399   1.278       .  A
O1388     Cd1393   2.109       .  S
Cd1389     O1391   2.047       .  S
Cd1389     O1392   1.967       .  S
Cd1390     O1394   2.085       .  S
Cd1390     O1403   2.052       .  S
Cd1390     O1392   1.990       .  S
O1391      C1401   1.271       .  A
O1392     Cd1393   1.990       .  S
Cd1393     O1395   2.119       .  S
O1394      C1401   1.280       .  A
C1396      O1400   1.268       .  A
C1401      C1405   1.455       .  S
C1402      O1403   1.270       .  A
C1402      C1448   1.470       .  S
O1404      C1420   1.273       .  A
O1404     Zn1410   2.003       .  S
O1406      C1419   1.283       .  A
O1406     Cd1413   2.118       .  S
O1407      C1425   1.282       .  A
O1407     Cd1416   2.117       .  S
O1408      C1422   1.273       .  A
O1408     Cd1412   2.042       .  S
O1409      C1420   1.276       .  A
O1409     Cd1412   2.089       .  S
Zn1410     O1421   1.953       .  S
Zn1410     O1423   1.992       .  S
Zn1410     O1415   1.906       .  S
O1411      C1422   1.279       .  A
O1411     Cd1416   2.109       .  S
Cd1412     O1414   2.048       .  S
Cd1412     O1415   1.967       .  S
Cd1413     O1417   2.085       .  S
Cd1413     O1426   2.052       .  S
Cd1413     O1415   1.989       .  S
O1414      C1424   1.271       .  A
O1415     Cd1416   1.990       .  S
Cd1416     O1418   2.119       .  S
O1417      C1424   1.280       .  A
C1419      O1423   1.268       .  A
C1425      O1426   1.270       .  A
C1425      C1471   1.470       .  S
O1427      C1443   1.273       .  A
O1427     Zn1433   2.003       .  S
C1428      C1470   1.455       .  S
O1429      C1442   1.283       .  A
O1429     Cd1436   2.117       .  S
O1430      C1448   1.282       .  A
O1430     Cd1439   2.117       .  S
O1431      C1445   1.273       .  A
O1431     Cd1435   2.042       .  S
O1432      C1443   1.276       .  A
O1432     Cd1435   2.088       .  S
Zn1433     O1444   1.953       .  S
Zn1433     O1446   1.993       .  S
Zn1433     O1438   1.906       .  S
O1434      C1445   1.279       .  A
O1434     Cd1439   2.109       .  S
Cd1435     O1437   2.048       .  S
Cd1435     O1438   1.967       .  S
Cd1436     O1440   2.085       .  S
Cd1436     O1449   2.051       .  S
Cd1436     O1438   1.989       .  S
O1437      C1447   1.271       .  A
O1438     Cd1439   1.990       .  S
Cd1439     O1441   2.119       .  S
O1440      C1447   1.280       .  A
C1442      O1446   1.268       .  A
C1447      C1451   1.455       .  S
C1448      O1449   1.270       .  A
O1450      C1466   1.273       .  A
O1450     Zn1456   2.003       .  S
C1451      O1467   1.267       .  A
C1451      O1464   1.284       .  A
O1452      C1465   1.283       .  A
O1452     Cd1459   2.118       .  S
O1453      C1471   1.282       .  A
O1453     Cd1462   2.117       .  S
O1454      C1468   1.273       .  A
O1454     Cd1458   2.042       .  S
O1455      C1466   1.276       .  A
O1455     Cd1458   2.089       .  S
Zn1456     O1467   1.953       .  S
Zn1456     O1469   1.993       .  S
Zn1456     O1461   1.906       .  S
O1457      C1468   1.279       .  A
O1457     Cd1462   2.109       .  S
Cd1458     O1460   2.048       .  S
Cd1458     O1461   1.967       .  S
Cd1459     O1463   2.085       .  S
Cd1459     O1472   2.051       .  S
Cd1459     O1461   1.989       .  S
O1460      C1470   1.271       .  A
O1461     Cd1462   1.990       .  S
Cd1462     O1464   2.119       .  S
O1463      C1470   1.280       .  A
C1465      O1469   1.268       .  A
C1471      O1472   1.270       .  A
