geometry optimzed in LAMMPS
_audit_creation_date              2020-12-01 
_audit_creation_method            'lammps2cif' 
_symmetry_space_group_name_H-M    'P1' 
_symmetry_Int_Tables_number       1 
_symmetry_cell_setting            triclinic 
loop_ 
_symmetry_equiv_pos_as_xyz 
  x,y,z 
_cell_length_a                    52.59202359 
_cell_length_b                    52.596313128512335 
_cell_length_c                    26.895231372775083 
_cell_angle_alpha                 89.92553692870065 
_cell_angle_beta                  89.96776873133952 
_cell_angle_gamma                 89.98205908504819 
loop_ 
_atom_site_label 
_atom_site_type_symbol 
_atom_site_fract_x 
_atom_site_fract_y 
_atom_site_fract_z 
_atom_site_charge 
O1          O  0.37618776  0.85572438  0.08527137    -0.73300
O2          O  0.37602898  0.85344211  0.43609452    -0.74300
O3          O  0.37879141  0.89277447  0.50860915    -0.62900
O4          O  0.37336030  0.81625510  0.01509397    -0.71300
O5          O  0.33128046  0.81923721  0.01366380    -0.70800
O6          O  0.33663794  0.89527442  0.50928779    -0.62100
O7          O  0.33389507  0.85623713  0.43635692    -0.74600
O8          O  0.33400757  0.85838252  0.08490201    -0.73400
Cu9        Cu  0.37781327  0.85450509  0.51068427     1.04600
Cu10       Cu  0.33267240  0.85740877  0.01064528     1.04300
C11         C  0.35506472  0.85728877  0.10840433     0.92900
C12         C  0.35491902  0.85467112  0.41272884     0.92100
C13         C  0.35877232  0.90593549  0.00909424     0.84200
C14         C  0.35192096  0.80585342  0.51655783     0.90500
O15         O  0.33217199  0.81894971  0.25645621    -0.73300
O16         O  0.33575467  0.89526781  0.26179349    -0.74300
O17         O  0.33389297  0.85835615  0.18584327    -0.62900
O18         O  0.33382241  0.85583935  0.33463532    -0.71300
O19         O  0.37601256  0.85405078  0.33469162    -0.70800
O20         O  0.37609435  0.85601754  0.18593618    -0.62100
O21         O  0.37793446  0.89305757  0.26147619    -0.74600
O22         O  0.37433587  0.81710799  0.25752810    -0.73400
Cu23       Cu  0.33241227  0.85717004  0.25994042     1.04600
Cu24       Cu  0.37755301  0.85499116  0.26012388     1.04300
C25         C  0.35276873  0.80608036  0.25434200     0.92900
C26         C  0.35748114  0.90614532  0.26114080     0.92100
C27         C  0.35501455  0.85736065  0.16256909     0.84200
C28         C  0.35489812  0.85472842  0.35815867     0.90500
O29         O  0.38405262  0.98384474  0.08312250    -0.73300
O30         O  0.38318030  0.98238265  0.43432525    -0.74300
O31         O  0.38461508  0.02139086  0.50576401    -0.62900
O32         O  0.38223911  0.94463109  0.01023555    -0.71300
O33         O  0.34007743  0.94698696  0.00972361    -0.70800
O34         O  0.34246774  0.02299686  0.50643021    -0.62100
O35         O  0.34096633  0.98430924  0.43436465    -0.74600
O36         O  0.34187243  0.98586270  0.08291358    -0.73400
Cu37       Cu  0.38463997  0.98310808  0.50843209     1.04600
Cu38       Cu  0.34058680  0.98513693  0.00836262     1.04300
C39         C  0.36291916  0.98490362  0.10650622     0.92900
C40         C  0.36208446  0.98329038  0.41099335     0.92100
C41         C  0.36561887  0.03405362  0.00263308     0.84200
C42         C  0.36048297  0.93380392  0.00971940     0.90500
O43         O  0.38623319  0.02052647  0.25975515    -0.73300
O44         O  0.38095190  0.94458011  0.25930841    -0.74300
O45         O  0.38379455  0.98288224  0.18462807    -0.62900
O46         O  0.38331592  0.98234609  0.33350175    -0.71300
O47         O  0.34112147  0.98471022  0.33332116    -0.70800
O48         O  0.34168571  0.98610961  0.18444238    -0.62100
O49         O  0.33880359  0.94728672  0.25843682    -0.74600
O50         O  0.34410621  0.02345531  0.26105912    -0.73400
Cu51       Cu  0.38503944  0.98247192  0.25919399     1.04600
Cu52       Cu  0.33993897  0.98549540  0.25912600     1.04300
C53         C  0.36602081  0.03394333  0.26170505     0.92900
C54         C  0.35911291  0.93396040  0.25959443     0.92100
C55         C  0.36279712  0.98470092  0.16105070     0.84200
C56         C  0.36216885  0.98339141  0.35676212     0.90500
O57         O  0.89696912  0.60700667  0.52208993    -0.73300
O58         O  0.97310637  0.59966085  0.52078256    -0.74300
O59         O  0.93467624  0.60312178  0.44723427    -0.62900
O60         O  0.93448382  0.60343479  0.09644455    -0.71300
O61         O  0.93093292  0.56134694  0.09618390    -0.70800
O62         O  0.93046484  0.56108842  0.44785228    -0.62100
O63         O  0.96890791  0.55764143  0.52116117    -0.74600
O64         O  0.89309354  0.56499797  0.52334571    -0.73400
Cu65       Cu  0.93517874  0.60481637  0.52153343     1.04600
Cu66       Cu  0.93084626  0.55984116  0.52225816     1.04300
C67         C  0.88303131  0.58710667  0.52327268     0.92900
C68         C  0.98295775  0.57744778  0.52060780     0.92100
C69         C  0.93244849  0.58204254  0.42415221     0.84200
C70         C  0.93276428  0.58231585  0.11974575     0.90500
O71         O  0.93055691  0.56110352  0.19753889    -0.73300
O72         O  0.93037756  0.56086742  0.34656815    -0.74300
O73         O  0.89260511  0.56492098  0.27216166    -0.62900
O74         O  0.96840993  0.55683528  0.27251416    -0.71300
O75         O  0.97267027  0.59884932  0.27304561    -0.70800
O76         O  0.89676962  0.60693008  0.27084872    -0.62100
O77         O  0.93427652  0.60293307  0.34629591    -0.74600
O78         O  0.93514822  0.60309139  0.19764470    -0.73400
Cu79       Cu  0.93032683  0.55945440  0.27215275     1.04600
Cu80       Cu  0.93487959  0.60441873  0.27197070     1.04300
C81         C  0.93284260  0.58214859  0.17416098     0.92900
C82         C  0.93231592  0.58192892  0.36982510     0.92100
C83         C  0.88273161  0.58711158  0.27154416     0.84200
C84         C  0.98248317  0.57661281  0.27320425     0.90500
O85         O  0.05881093  0.54752614  0.44739846    -0.73300
O86         O  0.05692369  0.54884535  0.09616654    -0.74300
O87         O  0.01995682  0.55305078  0.02034136    -0.62900
O88         O  0.09580473  0.54294877  0.52387312    -0.71300
O89         O  0.10087755  0.58485815  0.52520681    -0.70800
O90         O  0.02501089  0.59413254  0.51984688    -0.62100
O91         O  0.06126259  0.59087397  0.09638447    -0.74600
O92         O  0.06414546  0.58941652  0.44753494    -0.73400
Cu93       Cu  0.05787687  0.54619821  0.52207684     1.04600
Cu94       Cu  0.06315762  0.59107818  0.52199689     1.04300
C95         C  0.06163516  0.56849890  0.42399584     0.92900
C96         C  0.05890126  0.56984155  0.11963094     0.92100
C97         C  0.01069417  0.57449790  0.52023433     0.84200
C98         C  0.11022865  0.56242074  0.52637151     0.90500
O99         O  0.09982323  0.58715746  0.26897322    -0.73300
O100        O  0.02411039  0.59376466  0.27377519    -0.74300
O101        O  0.06309554  0.58987239  0.34631854    -0.62900
O102        O  0.06093886  0.59070589  0.19743887    -0.71300
O103        O  0.05713894  0.54862580  0.19703241    -0.70800
O104        O  0.05959494  0.54779149  0.34572075    -0.62100
O105        O  0.02026410  0.55171054  0.27346927    -0.74600
O106        O  0.09649590  0.54510967  0.26776749    -0.73400
Cu107      Cu  0.06211496  0.59182716  0.27180068     1.04600
Cu108      Cu  0.05824428  0.54681522  0.27115110     1.04300
C109        C  0.11012985  0.56522061  0.26608671     0.92900
C110        C  0.01023151  0.57385911  0.27368477     0.92100
C111        C  0.06156335  0.56870381  0.36948683     0.84200
C112        C  0.05886966  0.56974395  0.17387882     0.90500
O113        O  0.67328054  0.00188356  0.42641449    -0.73300
O114        O  0.67251543  0.00448577  0.07459244    -0.74300
O115        O  0.67124369  0.96475908  0.50266124    -0.62900
O116        O  0.67445182  0.04108093  0.49710662    -0.71300
O117        O  0.63226210  0.04272117  0.49767079    -0.70800
O118        O  0.62905940  0.96678849  0.50180558    -0.62100
O119        O  0.63031735  0.00609936  0.07552855    -0.74600
O120        O  0.63107166  0.00402176  0.42604211    -0.73400
Cu121      Cu  0.67438857  0.00289748  0.50060879     1.04600
Cu122      Cu  0.62923335  0.00486177  0.50022896     1.04300
C123        C  0.65224818  0.00302971  0.40288989     0.92900
C124        C  0.65156235  0.00554142  0.09853870     0.92100
C125        C  0.64956572  0.95378246  0.50212558     0.84200
C126        C  0.65379435  0.05383116  0.49474103     0.90500
O127        O  0.67305877  0.00424537  0.17615700    -0.73300
O128        O  0.67345389  0.00297620  0.32521296    -0.74300
O129        O  0.67104361  0.96561062  0.25034162    -0.62900
O130        O  0.67566150  0.04177680  0.25225543    -0.71300
O131        O  0.63353354  0.04438184  0.25422643    -0.70800
O132        O  0.62888415  0.96818974  0.25027290    -0.62100
O133        O  0.63124711  0.00513543  0.32552618    -0.74600
O134        O  0.63093206  0.00719350  0.17696101    -0.73400
Cu135      Cu  0.67479291  0.00359040  0.25079958     1.04600
Cu136      Cu  0.62968279  0.00634767  0.25155299     1.04300
C137        C  0.65188120  0.00577528  0.15307408     0.92900
C138        C  0.65235115  0.00364464  0.34869689     0.92100
C139        C  0.64923824  0.95492428  0.25102619     0.84200
C140        C  0.65536232  0.05505083  0.25510855     0.90500
O141        O  0.62360116  0.87658125  0.42879888    -0.73300
O142        O  0.62264629  0.87862103  0.07767747    -0.74300
O143        O  0.62619844  0.91528509  0.50183460    -0.62900
O144        O  0.62094528  0.83923411  0.50571831    -0.71300
O145        O  0.66304401  0.83636970  0.50717723    -0.70800
O146        O  0.66835178  0.91264085  0.50149787    -0.62100
O147        O  0.66483074  0.87609314  0.07748566    -0.74600
O148        O  0.66571583  0.87346246  0.42888005    -0.73400
Cu149      Cu  0.62212389  0.87739862  0.50328072     1.04600
Cu150      Cu  0.66721353  0.87442322  0.50362530     1.04300
C151        C  0.64467077  0.87510983  0.40534913     0.92900
C152        C  0.64378766  0.87760876  0.10092225     0.92100
C153        C  0.64801836  0.92594579  0.50177721     0.84200
C154        C  0.64114956  0.82583442  0.50892847     0.90500
O155        O  0.66509711  0.87638345  0.17822310    -0.73300
O156        O  0.66568062  0.87483282  0.32711185    -0.74300
O157        O  0.66289837  0.83773938  0.25060273    -0.62900
O158        O  0.66785087  0.91379842  0.25321310    -0.71300
O159        O  0.62570072  0.91648455  0.25393884    -0.70800
O160        O  0.62078391  0.84049228  0.25060215    -0.62100
O161        O  0.62353206  0.87743697  0.32753874    -0.74600
O162        O  0.62293407  0.87926067  0.17873955    -0.73400
Cu163      Cu  0.66686728  0.87561929  0.25244869     1.04600
Cu164      Cu  0.62176911  0.87854078  0.25295033     1.04300
C165        C  0.64394228  0.87786184  0.15513656     0.92900
C166        C  0.64464157  0.87572533  0.35080596     0.92100
C167        C  0.64105735  0.82716131  0.24855904     0.84200
C168        C  0.64752828  0.92711608  0.25285509     0.90500
O169        O  0.36431454  0.31326571  0.00871007    -0.73300
O170        O  0.36821725  0.23718339  0.01125321    -0.74300
O171        O  0.40414482  0.27750329  0.01207430    -0.62900
O172        O  0.32858786  0.27311989  0.00886720    -0.71300
O173        O  0.32871441  0.27363828  0.42805050    -0.70800
O174        O  0.40518356  0.27557118  0.43201415    -0.62100
O175        O  0.36750289  0.23653729  0.43139356    -0.74600
O176        O  0.36617645  0.31263478  0.42758968    -0.73400
Cu177      Cu  0.36633091  0.27527487  0.01304447     1.04600
Cu178      Cu  0.36698153  0.27455859  0.42680936     1.04300
C179        C  0.36474177  0.32503700  0.96710627     0.92900
C180        C  0.36830786  0.22480180  0.97038301     0.92100
C181        C  0.41686545  0.27765550  0.97167183     0.84200
C182        C  0.31690730  0.27230170  0.96735537     0.90500
O183        O  0.36610149  0.23643447  0.30760738    -0.73300
O184        O  0.36363673  0.31248344  0.31034709    -0.74300
O185        O  0.32674942  0.27387160  0.30115764    -0.62900
O186        O  0.40279073  0.27537904  0.31665421    -0.71300
O187        O  0.40716921  0.27527168  0.23456326    -0.70800
O188        O  0.33130835  0.27547962  0.21923352    -0.62100
O189        O  0.36885485  0.31335200  0.22850313    -0.74600
O190        O  0.36976553  0.23726176  0.22545176    -0.73400
Cu191      Cu  0.36465292  0.27445968  0.31181445     1.04600
Cu192      Cu  0.36940740  0.27534214  0.22408638     1.04300
C193        C  0.36887595  0.22483406  0.26625770     0.92900
C194        C  0.36551892  0.32492900  0.26973390     0.92100
C195        C  0.31702539  0.27536260  0.25767831     0.84200
C196        C  0.41694895  0.27514992  0.27802179     0.90500
O197        O  0.35128255  0.53001854  0.45150678    -0.73300
O198        O  0.34611397  0.60504625  0.47112675    -0.74300
O199        O  0.38687592  0.57061673  0.45626964    -0.62900
O200        O  0.31071169  0.56417701  0.46775632    -0.71300
O201        O  0.31410067  0.55943125  0.04998355    -0.70800
O202        O  0.38976515  0.56507055  0.04034776    -0.62100
O203        O  0.34950852  0.60027108  0.05501184    -0.74600
O204        O  0.35416369  0.52452657  0.03445887    -0.73400
Cu205      Cu  0.34861657  0.56767723  0.45883955     1.04600
Cu206      Cu  0.35200777  0.56213228  0.04779478     1.04300
C207        C  0.35343299  0.51541659  0.48915623     0.92900
C208        C  0.34710975  0.61475856  0.51457942     0.92100
C209        C  0.40043981  0.56933525  0.49568437     0.84200
C210        C  0.30062325  0.56033143  0.51043093     0.90500
O211        O  0.31352926  0.56145006  0.20552786    -0.73300
O212        O  0.38931889  0.56642091  0.20473523    -0.74300
O213        O  0.35406707  0.52596771  0.21130934    -0.62900
O214        O  0.34918656  0.60193469  0.20003838    -0.71300
O215        O  0.34931163  0.60468319  0.28232103    -0.70800
O216        O  0.35381484  0.52915325  0.29352075    -0.62100
O217        O  0.38950971  0.56927228  0.28700269    -0.74600
O218        O  0.31324605  0.56472337  0.28765388    -0.73400
Cu219      Cu  0.35146120  0.56379135  0.20254762     1.04600
Cu220      Cu  0.35141034  0.56702327  0.29050265     1.04300
C221        C  0.30128856  0.56273795  0.24642744     0.92900
C222        C  0.40141905  0.56895464  0.24555954     0.92100
C223        C  0.35513968  0.51560283  0.25429703     0.84200
C224        C  0.34911505  0.61534002  0.23964681     0.90500
O225        O  0.65752707  0.25673049  0.01536717    -0.73300
O226        O  0.65738725  0.33286783  0.01680579    -0.74300
O227        O  0.61963830  0.29429387  0.02075339    -0.62900
O228        O  0.69534449  0.29503254  0.01208661    -0.71300
O229        O  0.69261781  0.29475509  0.42111787    -0.70800
O230        O  0.61634333  0.29454219  0.43198856    -0.62100
O231        O  0.65455714  0.33258943  0.42607131    -0.74600
O232        O  0.65445208  0.25647874  0.42619822    -0.73400
Cu233      Cu  0.65757393  0.29472775  0.01912693     1.04600
Cu234      Cu  0.65438128  0.29457607  0.42340996     1.04300
C235        C  0.65593404  0.24436856  0.46727454     0.92900
C236        C  0.65563964  0.34460866  0.46720927     0.92100
C237        C  0.60605521  0.29357141  0.47501455     0.84200
C238        C  0.70586615  0.29563009  0.46093258     0.90500
O239        O  0.69116046  0.29933156  0.21583721    -0.73300
O240        O  0.61600114  0.29426240  0.23621277    -0.74300
O241        O  0.65108269  0.33463071  0.22804846    -0.62900
O242        O  0.65618379  0.25855933  0.22535209    -0.71300
O243        O  0.66207298  0.25829640  0.30689594    -0.70800
O244        O  0.65607327  0.33411384  0.30999114    -0.62100
O245        O  0.62129134  0.29308132  0.31808038    -0.74600
O246        O  0.69704783  0.29931346  0.29740704    -0.73400
Cu247      Cu  0.65340750  0.29668590  0.22356051     1.04600
Cu248      Cu  0.65935313  0.29617956  0.31097759     1.04300
C249        C  0.70606248  0.30042022  0.25322561     0.92900
C250        C  0.60673243  0.29307238  0.28001919     0.92100
C251        C  0.65248454  0.34633087  0.26957296     0.84200
C252        C  0.66011606  0.24635531  0.26580283     0.90500
O253        O  0.63941468  0.62488808  0.46519661    -0.73300
O254        O  0.64644400  0.54971711  0.44733238    -0.74300
O255        O  0.60485016  0.58378357  0.45201370    -0.62900
O256        O  0.68093850  0.59074230  0.46109067    -0.71300
O257        O  0.67872864  0.58675267  0.04139604    -0.70800
O258        O  0.60308076  0.57968714  0.03449903    -0.62100
O259        O  0.64461211  0.54555985  0.03067777    -0.74600
O260        O  0.63737997  0.62121179  0.04487071    -0.73400
Cu261      Cu  0.64297604  0.58748850  0.45359042     1.04600
Cu262      Cu  0.64087391  0.58318118  0.04069375     1.04300
C263        C  0.63762198  0.63458566  0.50860184     0.92900
C264        C  0.64629816  0.53520173  0.48539998     0.92100
C265        C  0.59197152  0.57978416  0.49160455     0.84200
C266        C  0.69189977  0.58948006  0.50347818     0.90500
O267        O  0.60497938  0.58186799  0.20629035    -0.73300
O268        O  0.68073568  0.58878975  0.21193568    -0.74300
O269        O  0.64594781  0.54751619  0.21486882    -0.62900
O270        O  0.63965698  0.62309859  0.20342763    -0.71300
O271        O  0.63805412  0.62592434  0.28560787    -0.70800
O272        O  0.64432409  0.55035808  0.29715723    -0.62100
O273        O  0.67899681  0.59140913  0.29407022    -0.74600
O274        O  0.60323626  0.58464622  0.28853538    -0.73400
Cu275      Cu  0.64289119  0.58522097  0.20626298     1.04600
Cu276      Cu  0.64106008  0.58822187  0.29420860     1.04300
C277        C  0.59217566  0.58172252  0.24665170     0.92900
C278        C  0.69189149  0.59140838  0.25383271     0.92100
C279        C  0.64612003  0.53699964  0.25772106     0.84200
C280        C  0.63830049  0.63653298  0.24282928     0.90500
O281        O  0.07444917  0.25917453  0.39799606    -0.73300
O282        O  0.07398051  0.25979475  0.04696202    -0.74300
O283        O  0.03621681  0.26120786  0.97199118    -0.62900
O284        O  0.11247413  0.25824473  0.97403862    -0.71300
O285        O  0.11346321  0.29980012  0.47296423    -0.70800
O286        O  0.03792414  0.30340611  0.97192879    -0.62100
O287        O  0.07593371  0.30198896  0.04656338    -0.74600
O288        O  0.07561783  0.30139033  0.39806724    -0.73400
Cu289      Cu  0.07429797  0.25816833  0.97276427     1.04600
Cu290      Cu  0.07548323  0.30267101  0.47250713     1.04300
C291        C  0.07512593  0.28030872  0.37459966     0.92900
C292        C  0.07498910  0.28091590  0.07016470     0.92100
C293        C  0.02507828  0.28280622  0.97202683     0.84200
C294        C  0.12540930  0.27883165  0.97425176     0.90500
O295        O  0.07593841  0.30151070  0.29680925    -0.73300
O296        O  0.07566247  0.30194965  0.14796114    -0.74300
O297        O  0.03764468  0.30258472  0.22257566    -0.62900
O298        O  0.11399061  0.30070788  0.22191972    -0.71300
O299        O  0.11295367  0.25864851  0.22257785    -0.70800
O300        O  0.03630879  0.26039101  0.22209640    -0.62100
O301        O  0.07470400  0.25972344  0.14786586    -0.74600
O302        O  0.07456259  0.25930115  0.29671080    -0.73400
Cu303      Cu  0.07584483  0.30314717  0.22233812     1.04600
Cu304      Cu  0.07460865  0.25803135  0.22227640     1.04300
C305        C  0.07524219  0.28037398  0.32019090     0.92900
C306        C  0.07511744  0.28087761  0.12450874     0.92100
C307        C  0.02493843  0.28187362  0.22227524     0.84200
C308        C  0.12565510  0.27936905  0.22207827     0.90500
O309        O  0.90942049  0.30811551  0.47098153    -0.73300
O310        O  0.98561297  0.30484270  0.47263956    -0.74300
O311        O  0.94787238  0.30665028  0.39787913    -0.62900
O312        O  0.94767119  0.30700727  0.04670690    -0.71300
O313        O  0.94627191  0.26478735  0.04685257    -0.70800
O314        O  0.94577816  0.26445593  0.39787107    -0.62100
O315        O  0.98378588  0.26264951  0.47246816    -0.74600
O316        O  0.90829777  0.26623641  0.97258263    -0.73400
Cu317      Cu  0.94757389  0.30803398  0.47206949     1.04600
Cu318      Cu  0.94627536  0.26340179  0.97238447     1.04300
C319        C  0.89649434  0.28754256  0.47108387     0.92900
C320        C  0.99723338  0.28397274  0.97229619     0.92100
C321        C  0.94685902  0.28559171  0.37448086     0.84200
C322        C  0.94687014  0.28591566  0.07018981     0.90500
O323        O  0.94566962  0.26471955  0.29666332    -0.73300
O324        O  0.94529540  0.26494123  0.14806156    -0.74300
O325        O  0.98383300  0.26257686  0.22200220    -0.62900
O326        O  0.90718781  0.26772480  0.22315862    -0.71300
O327        O  0.91007437  0.30979036  0.22258824    -0.70800
O328        O  0.98611051  0.30473099  0.22226439    -0.62100
O329        O  0.94804101  0.30709032  0.14787987    -0.74600
O330        O  0.94811692  0.30689082  0.29684439    -0.73400
Cu331      Cu  0.94538741  0.26349758  0.22240727     1.04600
Cu332      Cu  0.94818496  0.30857774  0.22235622     1.04300
C333        C  0.94689733  0.28574115  0.32014982     0.92900
C334        C  0.94670246  0.28598994  0.12455865     0.92100
C335        C  0.99699911  0.28302773  0.22216085     0.84200
C336        C  0.89656939  0.28962464  0.22370441     0.90500
C337        C  0.77696949  0.31188793  0.27165574    -0.11700
C338        C  0.78709349  0.29998672  0.22950239     0.14800
C339        C  0.77043806  0.29015329  0.19313601     0.01700
C340        C  0.74413519  0.29137756  0.20116425    -0.16100
C341        C  0.73392548  0.30218860  0.24469456    -0.10900
C342        C  0.75071508  0.31356593  0.27919936     0.08400
C343        C  0.81504249  0.29736113  0.22611212     0.09500
S344        S  0.78121772  0.27577802  0.13585876    -0.25200
H345        H  0.73155813  0.28306315  0.17369077     0.19700
S346        S  0.74000329  0.33162803  0.33204556    -0.30900
H347        H  0.78972906  0.32013761  0.29881216     0.10100
C348        C  0.83011872  0.31472488  0.19929496     0.03300
C349        C  0.85667968  0.31176398  0.19904676    -0.13200
C350        C  0.86847904  0.29190606  0.22556691    -0.08900
C351        C  0.85315979  0.27498723  0.25346177     0.06700
C352        C  0.82671468  0.27761391  0.25257059    -0.14000
S353        S  0.81550158  0.34064450  0.16574610    -0.30900
H354        H  0.86831057  0.32487981  0.17791644     0.11000
S355        S  0.86608923  0.25078908  0.29366679    -0.28000
H356        H  0.81510682  0.26445752  0.27363668     0.08200
H357        H  0.71940153  0.34277478  0.30673695     0.26600
H358        H  0.83816789  0.35156483  0.14797080     0.21400
H359        H  0.88609837  0.26602890  0.31146900     0.26700
H360        H  0.80618478  0.27002899  0.15039487     0.15600
C361        C  0.66136508  0.46996744  0.30119777    -0.11700
C362        C  0.64725612  0.45566540  0.26703623     0.14800
C363        C  0.63276117  0.46819531  0.23027436     0.01700
C364        C  0.63331963  0.49468833  0.22748551    -0.16100
C365        C  0.64758635  0.50909763  0.26131836    -0.10900
C366        C  0.66197133  0.49651990  0.29834948     0.08400
C367        C  0.64929867  0.42772794  0.26857287     0.09500
S368        S  0.61319678  0.45156511  0.18583945    -0.25200
H369        H  0.62204069  0.50416699  0.19931668     0.19700
S370        S  0.68257406  0.51303835  0.34106515    -0.30900
H371        H  0.67265934  0.46032889  0.32912685     0.10100
C372        C  0.66352066  0.41445141  0.23264968     0.03300
C373        C  0.66386955  0.38786243  0.23363260    -0.13200
C374        C  0.65057493  0.37426506  0.27026181    -0.08900
C375        C  0.63650423  0.38771807  0.30662877     0.06700
C376        C  0.63629477  0.41430075  0.30566354    -0.14000
S377        S  0.68179671  0.43142091  0.18644980    -0.30900
H378        H  0.67494892  0.37757443  0.20628414     0.11000
S379        S  0.61758081  0.37246872  0.35395391    -0.28000
H380        H  0.62531924  0.42462139  0.33318546     0.08200
H381        H  0.69033296  0.53171295  0.30676037     0.26600
H382        H  0.69061867  0.40995867  0.16047969     0.21400
H383        H  0.61142545  0.35065247  0.32657540     0.26700
H384        H  0.60838986  0.43003034  0.21533998     0.15600
C385        C  0.77574826  0.30658949  0.00078099    -0.11700
C386        C  0.78740184  0.29326941  0.45495455     0.14800
C387        C  0.77270978  0.28153426  0.41745705     0.01700
C388        C  0.74616483  0.28329215  0.41951741    -0.16100
C389        C  0.73391181  0.29648664  0.45807462    -0.10900
C390        C  0.74931228  0.30875786  0.00247047     0.08400
C391        C  0.81534322  0.29138202  0.45716395     0.09500
S392        S  0.78607700  0.26323131  0.36702269    -0.25200
H393        H  0.73496887  0.27370663  0.39141723     0.19700
S394        S  0.73607969  0.32947232  0.04920596    -0.30900
H395        H  0.78714022  0.31652584  0.02811951     0.10100
C396        C  0.83102972  0.30820385  0.43037887     0.03300
C397        C  0.85746916  0.30670859  0.43610769    -0.13200
C398        C  0.86850405  0.28884140  0.46843236    -0.08900
C399        C  0.85387064  0.27241856  0.00102128     0.06700
C400        C  0.82740632  0.27344322  0.99678897    -0.14000
S401        S  0.81733622  0.33171959  0.38944877    -0.30900
H402        H  0.86963636  0.31936452  0.41503632     0.11000
S403        S  0.86694807  0.25085251  0.04648088    -0.28000
H404        H  0.81577821  0.26096328  0.01946273     0.08200
H405        H  0.71692218  0.33937813  0.01820973     0.26600
H406        H  0.84038632  0.34065725  0.36945834     0.21400
H407        H  0.88663558  0.26722914  0.06155520     0.26700
H408        H  0.81199170  0.26680630  0.37687653     0.15600
C409        C  0.63961336  0.46780735  0.43563296    -0.11700
C410        C  0.65484256  0.45461955  0.97758830     0.14800
C411        C  0.66771762  0.46867935  0.01444666     0.01700
C412        C  0.66422684  0.49496882  0.01705902    -0.16100
C413        C  0.64847594  0.50737566  0.47913581    -0.10900
C414        C  0.63659216  0.49415728  0.43961881     0.08400
C415        C  0.65523507  0.42657243  0.97709550     0.09500
S416        S  0.68872023  0.45420996  0.05931309    -0.25200
H417        H  0.67406377  0.50560138  0.04574232     0.19700
S418        S  0.61583400  0.50934724  0.39533411    -0.30900
H419        H  0.62997055  0.45766747  0.40602552     0.10100
C420        C  0.64189300  0.41238720  0.01310536     0.03300
C421        C  0.64330735  0.38580659  0.01236288    -0.13200
C422        C  0.65562466  0.37265265  0.46723762    -0.08900
C423        C  0.66993300  0.38711745  0.43274385     0.06700
C424        C  0.66835167  0.41366417  0.43349830    -0.14000
S425        S  0.62232834  0.42811629  0.05890288    -0.30900
H426        H  0.63267966  0.37483783  0.03934472     0.11000
S427        S  0.69143882  0.37304119  0.38848851    -0.28000
H428        H  0.67947411  0.42470950  0.40735787     0.08200
H429        H  0.60421827  0.52550062  0.43029923     0.26600
H430        H  0.61590014  0.40625030  0.08633313     0.21400
H431        H  0.69975958  0.35347721  0.42027113     0.26700
H432        H  0.69594479  0.43337663  0.02985333     0.15600
C433        C  0.46971187  0.58631613  0.27691647    -0.11700
C434        C  0.48296927  0.57284033  0.24021926     0.14800
C435        C  0.46933374  0.55819254  0.20528854     0.01700
C436        C  0.44277868  0.55779326  0.20737029    -0.16100
C437        C  0.42941745  0.57116766  0.24430291    -0.10900
C438        C  0.44317756  0.58593078  0.27902553     0.08400
C439        C  0.51098452  0.57455567  0.23990137     0.09500
S440        S  0.48453427  0.53929561  0.15777730    -0.25200
H441        H  0.43246753  0.54635420  0.18055838     0.19700
S442        S  0.42816605  0.60577359  0.32511043    -0.30900
H443        H  0.48017892  0.59772133  0.30355913     0.10100
C444        C  0.52426729  0.58800872  0.20274051     0.03300
C445        C  0.55084454  0.58959894  0.20526562    -0.13200
C446        C  0.56434986  0.57828440  0.24457676    -0.08900
C447        C  0.55089097  0.56440513  0.28118630     0.06700
C448        C  0.52443736  0.56293590  0.27863170    -0.14000
S449        S  0.50738907  0.60416345  0.15352715    -0.30900
H450        H  0.56109244  0.60035395  0.17733935     0.11000
S451        S  0.56622570  0.54726585  0.33090814    -0.28000
H452        H  0.51422569  0.55225220  0.30665671     0.08200
H453        H  0.40880847  0.61440684  0.29313392     0.26600
H454        H  0.52886569  0.61014654  0.12457128     0.21400
H455        H  0.58655698  0.53854363  0.30145395     0.26700
H456        H  0.50740388  0.53500306  0.18343045     0.15600
C457        C  0.52396881  0.56005494  0.02263641    -0.11700
C458        C  0.51026624  0.57446721  0.48498026     0.14800
C459        C  0.52380575  0.58992495  0.45102911     0.01700
C460        C  0.55043194  0.59044973  0.45272400    -0.16100
C461        C  0.56400225  0.57651656  0.48859359    -0.10900
C462        C  0.55054242  0.56082877  0.02383866     0.08400
C463        C  0.48209107  0.57335693  0.48617494     0.09500
S464        S  0.50838283  0.61015994  0.40593865    -0.25200
H465        H  0.56057826  0.60266255  0.42703111     0.19700
S466        S  0.56625753  0.54010965  0.06759862    -0.30900
H467        H  0.51393252  0.54788077  0.04858079     0.10100
C468        C  0.46776541  0.56221695  0.44760254     0.03300
C469        C  0.44111286  0.56185894  0.45089234    -0.13200
C470        C  0.42845502  0.57192913  0.49250265    -0.08900
C471        C  0.44283917  0.58287277  0.03352133     0.06700
C472        C  0.46934048  0.58334586  0.03020681    -0.14000
S473        S  0.48337681  0.54713045  0.39566715    -0.30900
H474        H  0.43012056  0.55290950  0.42171966     0.11000
S475        S  0.42868556  0.59861122  0.08625173    -0.28000
H476        H  0.48021627  0.59247926  0.05934886     0.08200
H477        H  0.58607062  0.53334752  0.03497666     0.26600
H478        H  0.46135746  0.54282540  0.36720541     0.21400
H479        H  0.40862773  0.60950095  0.05890483     0.26700
H480        H  0.48603127  0.61437894  0.43335913     0.15600
C481        C  0.19508279  0.25772813  0.21691380    -0.11700
C482        C  0.20756841  0.27925159  0.23553849     0.14800
C483        C  0.19319033  0.30122796  0.24674372     0.01700
C484        C  0.16675040  0.30075383  0.24077484    -0.16100
C485        C  0.15399809  0.27898008  0.22344037    -0.10900
C486        C  0.16869370  0.25745537  0.20991357     0.08400
C487        C  0.23556865  0.27818861  0.24169782     0.09500
S488        S  0.20690229  0.33056546  0.26914447    -0.25200
H489        H  0.15598489  0.31755171  0.25088647     0.19700
S490        S  0.15538636  0.22948644  0.18140564    -0.30900
H491        H  0.20612861  0.24108155  0.20690987     0.10100
C492        C  0.24688065  0.26362426  0.27978247     0.03300
C493        C  0.27346011  0.26331136  0.28464682    -0.13200
C494        C  0.28905133  0.27712154  0.25192265    -0.08900
C495        C  0.27752981  0.29216855  0.21443793     0.06700
C496        C  0.25105302  0.29212191  0.20917206    -0.14000
S497        S  0.22744782  0.24560826  0.32248673    -0.30900
H498        H  0.28218769  0.25198835  0.31365646     0.11000
S499        S  0.29529430  0.31305241  0.17411906    -0.28000
H500        H  0.24235296  0.30358686  0.18028356     0.08200
H501        H  0.13939757  0.24324985  0.14915458     0.26600
H502        H  0.24760020  0.23563023  0.35077320     0.21400
H503        H  0.31222135  0.32117945  0.21135316     0.26700
H504        H  0.23085431  0.32133589  0.28295804     0.15600
C505        C  0.48737061  0.26187506  0.25943090    -0.11700
C506        C  0.49816122  0.27942317  0.29243086     0.14800
C507        C  0.48208276  0.29474173  0.32196186     0.01700
C508        C  0.45569481  0.29231875  0.31759863    -0.16100
C509        C  0.44485248  0.27521320  0.28373621    -0.10900
C510        C  0.46095719  0.25951915  0.25486799     0.08400
C511        C  0.52604546  0.28308519  0.29146074     0.09500
S512        S  0.49388862  0.31868180  0.36388571    -0.25200
H513        H  0.44350086  0.30445775  0.33980504     0.19700
S514        S  0.44911693  0.23605525  0.21185378    -0.30900
H515        H  0.49965520  0.25021149  0.23647642     0.10100
C516        C  0.54278105  0.26690194  0.31748076     0.03300
C517        C  0.56906569  0.27144646  0.31537649    -0.13200
C518        C  0.57894487  0.29128486  0.28624734    -0.08900
C519        C  0.56204607  0.30755116  0.26043555     0.06700
C520        C  0.53585939  0.30329540  0.26349677    -0.14000
S521        S  0.53084902  0.23991885  0.35167735    -0.30900
H522        H  0.58204323  0.25881397  0.33452412     0.11000
S523        S  0.57242918  0.33412092  0.22303745    -0.28000
H524        H  0.52296785  0.31576158  0.24364638     0.08200
H525        H  0.42752070  0.22957473  0.23993485     0.26600
H526        H  0.55380799  0.23382754  0.37576386     0.21400
H527        H  0.59499432  0.33892728  0.24911525     0.26700
H528        H  0.51791625  0.30777753  0.37146063     0.15600
C529        C  0.37112791  0.44912405  0.30080330    -0.11700
C530        C  0.35931578  0.43423701  0.26440303     0.14800
C531        C  0.34619610  0.44613003  0.22496749     0.01700
C532        C  0.34564435  0.47263276  0.22217189    -0.16100
C533        C  0.35750772  0.48769440  0.25842665    -0.10900
C534        C  0.37072525  0.47567219  0.29789945     0.08400
C535        C  0.36197297  0.40637949  0.26721061     0.09500
S536        S  0.32982663  0.42864980  0.17700116    -0.25200
H537        H  0.33537788  0.48156256  0.19190705     0.19700
S538        S  0.38879869  0.49285495  0.34386029    -0.30900
H539        H  0.38143686  0.43996763  0.33074840     0.10100
C540        C  0.37863291  0.39322453  0.23533186     0.03300
C541        C  0.37939744  0.36662570  0.23701176    -0.13200
C542        C  0.36386915  0.35293056  0.27004299    -0.08900
C543        C  0.34723502  0.36630880  0.30213408     0.06700
C544        C  0.34685427  0.39287804  0.30099727    -0.14000
S545        S  0.39906918  0.41036222  0.19290377    -0.30900
H546        H  0.39225012  0.35643288  0.21272182     0.11000
S547        S  0.32493655  0.35075482  0.34307147    -0.28000
H548        H  0.33396005  0.40310282  0.32524286     0.08200
H549        H  0.39856011  0.51079024  0.30998253     0.26600
H550        H  0.41111119  0.38897967  0.17214208     0.21400
H551        H  0.31822642  0.33168540  0.30886369     0.26700
H552        H  0.32408415  0.40710596  0.20582090     0.15600
C553        C  0.19563047  0.29647183  0.98543231    -0.11700
C554        C  0.20675423  0.27354131  0.47315921     0.14800
C555        C  0.19159349  0.25194970  0.46336904     0.01700
C556        C  0.16511330  0.25409872  0.46521277    -0.16100
C557        C  0.15365597  0.27754930  0.97587196    -0.10900
C558        C  0.16918605  0.29858442  0.98875315     0.08400
C559        C  0.23484913  0.27289609  0.47074730     0.09500
S560        S  0.20443118  0.22105934  0.44811884    -0.25200
H561        H  0.15378580  0.23749369  0.45629708     0.19700
S562        S  0.15688015  0.32823354  0.01212872    -0.30900
H563        H  0.20736374  0.31272443  0.99494414     0.10100
C564        C  0.24831655  0.28689745  0.43452960     0.03300
C565        C  0.27493620  0.28587796  0.43365048    -0.13200
C566        C  0.28890667  0.27087914  0.96698793    -0.08900
C567        C  0.27517831  0.25665626  0.00274443     0.06700
C568        C  0.24865611  0.25816659  0.00389523    -0.14000
S569        S  0.23166175  0.30620926  0.38959429    -0.30900
H570        H  0.28537959  0.29696640  0.40648714     0.11000
S571        S  0.29021347  0.23540815  0.04646385    -0.28000
H572        H  0.23820383  0.24745062  0.03166658     0.08200
H573        H  0.13980237  0.31651417  0.04534267     0.26600
H574        H  0.25327680  0.31454928  0.36342159     0.21400
H575        H  0.30925337  0.22720091  0.01337063     0.26700
H576        H  0.22833583  0.22906214  0.43125856     0.15600
C577        C  0.53622471  0.31030445  0.46901943    -0.11700
C578        C  0.52556812  0.28933534  0.98682061     0.14800
C579        C  0.54105711  0.26903381  0.00313802     0.01700
C580        C  0.56748293  0.27157373  0.00144840    -0.16100
C581        C  0.57833114  0.29244392  0.47970755    -0.10900
C582        C  0.56258320  0.31275706  0.46484900     0.08400
C583        C  0.49766627  0.28678776  0.98314527     0.09500
S584        S  0.52828863  0.23946420  0.02627106    -0.25200
H585        H  0.57936378  0.25578261  0.01304045     0.19700
S586        S  0.57489747  0.34222789  0.44054532    -0.30900
H587        H  0.52415006  0.32585577  0.45711520     0.10100
C588        C  0.48115691  0.30089702  0.01371926     0.03300
C589        C  0.45485252  0.29745080  0.00906939    -0.13200
C590        C  0.44472705  0.28025857  0.97435586    -0.08900
C591        C  0.46074029  0.26471269  0.44667136     0.06700
C592        C  0.48696262  0.26800763  0.45105582    -0.14000
S593        S  0.49356984  0.32261665  0.05968981    -0.30900
H594        H  0.44203636  0.30830377  0.03245312     0.11000
S595        S  0.44972642  0.24101404  0.40347184    -0.28000
H596        H  0.49954418  0.25679797  0.42796135     0.08200
H597        H  0.59755728  0.34212832  0.46821817     0.26600
H598        H  0.46996904  0.33071843  0.07853745     0.21400
H599        H  0.42973030  0.23231100  0.43380120     0.26700
H600        H  0.50585630  0.24988540  0.04612493     0.15600
C601        C  0.37449280  0.39455034  0.43226773    -0.11700
C602        C  0.35736503  0.40635729  0.96835129     0.14800
C603        C  0.34407791  0.39110808  0.00284278     0.01700
C604        C  0.34723235  0.36476111  0.00190241    -0.16100
C605        C  0.36301592  0.35306316  0.96658988    -0.10900
C606        C  0.37731640  0.36806519  0.43194209     0.08400
C607        C  0.35725268  0.43434375  0.97220309     0.09500
S608        S  0.32317842  0.40410558  0.04956076    -0.25200
H609        H  0.33694542  0.35325668  0.02860180     0.19700
S610        S  0.39958737  0.35476737  0.38807373    -0.30900
H611        H  0.38506227  0.40596759  0.40586633     0.10100
C612        C  0.37173923  0.44675811  0.00888561     0.03300
C613        C  0.36979777  0.47317402  0.01410679    -0.13200
C614        C  0.35482055  0.48759521  0.48199138    -0.08900
C615        C  0.34093301  0.47479398  0.44442476     0.06700
C616        C  0.34368306  0.44848729  0.43882181    -0.14000
S617        S  0.39288305  0.42891239  0.04876443    -0.30900
H618        H  0.38109016  0.48278544  0.04198396     0.11000
S619        S  0.31816136  0.49047105  0.40472199    -0.28000
H620        H  0.33272464  0.43864742  0.41067076     0.08200
H621        H  0.40930287  0.33635935  0.42099600     0.26600
H622        H  0.40092603  0.44949004  0.07817041     0.21400
H623        H  0.30832773  0.50618702  0.44244167     0.26700
H624        H  0.31577678  0.42574955  0.02254536     0.15600
C625        C  0.64668287  0.70503668  0.19994050    -0.11700
C626        C  0.63418236  0.71804551  0.23817821     0.14800
C627        C  0.62232300  0.70424160  0.27669660     0.01700
C628        C  0.62385834  0.67774413  0.27695067    -0.16100
C629        C  0.63694462  0.66455378  0.23944207    -0.10900
C630        C  0.64864669  0.67853537  0.20059571     0.08400
C631        C  0.63636933  0.74593696  0.23989377     0.09500
S632        S  0.60581204  0.71926687  0.32755674    -0.25200
H633        H  0.61476838  0.66733858  0.30690716     0.19700
S634        S  0.66826568  0.66416466  0.15339473    -0.30900
H635        H  0.65617563  0.71572252  0.17082833     0.10100
C636        C  0.65569605  0.75765612  0.26786039     0.03300
C637        C  0.65691483  0.78422223  0.26977341    -0.13200
C638        C  0.63936536  0.79928121  0.24370257    -0.08900
C639        C  0.62079898  0.78734480  0.21359188     0.06700
C640        C  0.61929538  0.76081580  0.21258049    -0.14000
S641        S  0.67896089  0.73868986  0.30054848    -0.30900
H642        H  0.67141572  0.79333077  0.29214527     0.11000
S643        S  0.59949277  0.80472720  0.17353657    -0.28000
H644        H  0.60491136  0.75165570  0.18991792     0.08200
H645        H  0.68088828  0.64775348  0.18659792     0.26600
H646        H  0.69322588  0.75906606  0.31967253     0.21400
H647        H  0.61770300  0.82288317  0.15904655     0.26700
H648        H  0.59889214  0.74156495  0.30217831     0.15600
C649        C  0.65238632  0.75776188  0.04686234    -0.11700
C650        C  0.63557356  0.74444381  0.51979682     0.14800
C651        C  0.61898523  0.75834524  0.48867180     0.01700
C652        C  0.62106623  0.78483555  0.48621633    -0.16100
C653        C  0.63903099  0.79795256  0.51494458    -0.10900
C654        C  0.65393666  0.78433404  0.04613209     0.08400
C655        C  0.63675488  0.71635004  0.51821196     0.09500
S656        S  0.59520718  0.74340093  0.45029523    -0.25200
H657        H  0.60879343  0.79527768  0.46102356     0.19700
S658        S  0.67601393  0.79910725  0.08841836    -0.30900
H659        H  0.66524654  0.74699259  0.07035655     0.10100
C660        C  0.64915530  0.70385427  0.47884499     0.03300
C661        C  0.64892864  0.67726663  0.47684599    -0.13200
C662        C  0.63656757  0.66268394  0.51347357    -0.08900
C663        C  0.62248442  0.67578801  0.04889520     0.06700
C664        C  0.62303092  0.70239820  0.05158640    -0.14000
S665        S  0.66568459  0.72182921  0.43153028    -0.30900
H666        H  0.65871410  0.66776230  0.44671322     0.11000
S667        S  0.60340636  0.65925248  0.09429345    -0.28000
H668        H  0.61283071  0.71198990  0.08114483     0.08200
H669        H  0.66007026  0.81977137  0.09989054     0.26600
H670        H  0.67411395  0.70094322  0.40336087     0.21400
H671        H  0.59351317  0.64152010  0.06027290     0.26700
H672        H  0.59168660  0.72174213  0.48012310     0.15600
C673        C  0.64451763  0.12343162  0.29557362    -0.11700
C674        C  0.66061846  0.13644378  0.26274040     0.14800
C675        C  0.67593873  0.12251334  0.22931889     0.01700
C676        C  0.67394426  0.09600126  0.22788108    -0.16100
C677        C  0.65726905  0.08295479  0.25965676    -0.10900
C678        C  0.64289459  0.09687458  0.29484143     0.08400
C679        C  0.66044592  0.16453702  0.26322698     0.09500
S680        S  0.69809068  0.13738221  0.18709941    -0.25200
H681        H  0.68531300  0.08546838  0.20131339     0.19700
S682        S  0.62283980  0.08198076  0.34084405    -0.30900
H683        H  0.63313874  0.13407407  0.32196726     0.14900
C684        C  0.64779545  0.17851791  0.22605883     0.03300
C685        C  0.64839654  0.20513920  0.22740727    -0.13200
C686        C  0.66161113  0.21819099  0.26497299    -0.08900
C687        C  0.67486607  0.20393092  0.30151716     0.06700
C688        C  0.67358809  0.17735688  0.30087351    -0.14000
S689        S  0.63028828  0.16242683  0.17768486    -0.30900
H690        H  0.63805898  0.21583582  0.19952642     0.11000
S691        S  0.69480672  0.21819020  0.34834689    -0.28000
H692        H  0.68359649  0.16651080  0.32907831     0.08200
H693        H  0.63817753  0.06035103  0.34725595     0.26600
H694        H  0.62442227  0.18418297  0.14944883     0.21400
H695        H  0.70520617  0.23658452  0.31617295     0.26700
H696        H  0.70286119  0.15912755  0.21588181     0.15600
C697        C  0.67072415  0.11998829  0.44843301    -0.11700
C698        C  0.65293754  0.13544867  0.98013619     0.14800
C699        C  0.63598967  0.12323487  0.01309753     0.01700
C700        C  0.63659401  0.09678612  0.01745259    -0.16100
C701        C  0.65451134  0.08161936  0.48777375    -0.10900
C702        C  0.67093737  0.09349850  0.45308707     0.08400
C703        C  0.65455157  0.16336703  0.97725635     0.09500
S704        S  0.61359079  0.14025602  0.05150312    -0.25200
H705        H  0.62380482  0.08755860  0.04344238     0.19700
S706        S  0.69190034  0.07606761  0.41243859    -0.30900
H707        H  0.68354734  0.12910513  0.42235301     0.10100
C708        C  0.66841073  0.17720816  0.01278647     0.03300
C709        C  0.66837435  0.20378656  0.01072163    -0.13200
C710        C  0.65544366  0.21624820  0.46784307    -0.08900
C711        C  0.64186202  0.20172319  0.43230690     0.06700
C712        C  0.64276221  0.17516344  0.43454122    -0.14000
S713        S  0.68626654  0.16093336  0.06052746    -0.30900
H714        H  0.67936071  0.21445834  0.03764175     0.11000
S715        S  0.62155433  0.21568286  0.38564082    -0.28000
H716        H  0.63222698  0.16405015  0.40754128     0.08200
H717        H  0.67499859  0.05582781  0.40424210     0.26600
H718        H  0.69365140  0.18273375  0.08709726     0.21400
H719        H  0.61121323  0.23415812  0.41763243     0.26700
H720        H  0.61036121  0.16128419  0.01992588     0.15600
C721        C  0.17661242  0.54432428  0.22735232    -0.11700
C722        C  0.19155420  0.56183377  0.25350460     0.14800
C723        C  0.17961734  0.58091413  0.28206610     0.01700
C724        C  0.15313952  0.58123198  0.28602787    -0.16100
C725        C  0.13805661  0.56346536  0.26068058    -0.10900
C726        C  0.15002547  0.54522994  0.22983520     0.08400
C727        C  0.21952990  0.55995120  0.25035056     0.09500
S728        S  0.19699685  0.60554644  0.31398497    -0.25200
H729        H  0.14420949  0.59564287  0.30896195     0.19700
S730        S  0.13258155  0.52369349  0.19051173    -0.30900
H731        H  0.18574655  0.53012022  0.20423167     0.10100
C732        C  0.23402386  0.55061724  0.29038096     0.03300
C733        C  0.26062463  0.55165465  0.28804057    -0.13200
C734        C  0.27310957  0.56187357  0.24632487    -0.08900
C735        C  0.25832335  0.57092949  0.20589086     0.06700
C736        C  0.23180182  0.56939627  0.20801999    -0.14000
S737        S  0.21858006  0.53700110  0.34404344    -0.30900
H738        H  0.27174715  0.54433634  0.31876409     0.11000
S739        S  0.27175747  0.58651581  0.15229232    -0.28000
H740        H  0.22057063  0.57680537  0.17745661     0.08200
H741        H  0.11413500  0.54171193  0.17647758     0.26600
H742        H  0.24056061  0.53417908  0.37334110     0.21400
H743        H  0.28888258  0.60126453  0.18023452     0.26700
H744        H  0.21776375  0.60652398  0.28118276     0.15600
C745        C  0.17964529  0.57458344  0.05718190    -0.11700
C746        C  0.19128725  0.55429405  0.52829212     0.14800
C747        C  0.17618515  0.53865888  0.49754223     0.01700
C748        C  0.14974024  0.54132891  0.49842249    -0.16100
C749        C  0.13795915  0.55886531  0.53021897    -0.10900
C750        C  0.15318615  0.57692671  0.05938081     0.08400
C751        C  0.21921833  0.55539664  0.52313791     0.09500
S752        S  0.18943591  0.51545839  0.45556053    -0.25200
H753        H  0.13829080  0.53002089  0.47325193     0.19700
S754        S  0.14031021  0.60022464  0.10156739    -0.30900
H755        H  0.19141407  0.58751001  0.07853848     0.10100
C756        C  0.23056826  0.56884224  0.48367250     0.03300
C757        C  0.25712073  0.56963804  0.47981024    -0.13200
C758        C  0.27267326  0.55734124  0.51485104    -0.08900
C759        C  0.26070361  0.54228110  0.05034791     0.06700
C760        C  0.23417413  0.54214789  0.05449977    -0.14000
S761        S  0.21117506  0.58595068  0.43951875    -0.30900
H762        H  0.26580973  0.58046674  0.45003428     0.11000
S763        S  0.27813095  0.52103147  0.09049629    -0.28000
H764        H  0.22514660  0.53025944  0.08234603     0.08200
H765        H  0.11938892  0.58527582  0.11610067     0.26600
H766        H  0.23111914  0.59353894  0.40794821     0.21400
H767        H  0.29584263  0.51382481  0.05386584     0.26700
H768        H  0.21233648  0.51155763  0.48132218     0.15600
C769        C  0.81255851  0.57650703  0.29576317    -0.11700
C770        C  0.80159819  0.59330455  0.26148479     0.14800
C771        C  0.81744305  0.60887815  0.23191309     0.01700
C772        C  0.84387406  0.60682634  0.23664724    -0.16100
C773        C  0.85484588  0.58982271  0.27074100    -0.10900
C774        C  0.83890013  0.57493826  0.30143277     0.08400
C775        C  0.77359648  0.59386093  0.25772890     0.09500
S776        S  0.80527908  0.63116038  0.18667192    -0.25200
H777        H  0.85598874  0.61828535  0.21291736     0.19700
S778        S  0.85088375  0.55429619  0.34963181    -0.30900
H779        H  0.80043126  0.56450005  0.31830614     0.10100
C780        C  0.76077283  0.58256825  0.21753912     0.03300
C781        C  0.73414013  0.58266380  0.21667076    -0.13200
C782        C  0.71996612  0.59372863  0.25540239    -0.08900
C783        C  0.73307025  0.60566333  0.29508012     0.06700
C784        C  0.75964792  0.60522978  0.29609786    -0.14000
S785        S  0.77828041  0.56691808  0.16862952    -0.30900
H786        H  0.72434054  0.57336324  0.18639061     0.11000
S787        S  0.71732013  0.62255958  0.34460267    -0.28000
H788        H  0.76959573  0.61408941  0.32677190     0.08200
H789        H  0.87147904  0.57001802  0.36258054     0.26600
H790        H  0.75740136  0.56233054  0.13721827     0.21400
H791        H  0.69942622  0.63429364  0.31313249     0.26700
H792        H  0.78163702  0.63542887  0.20951859     0.15600
C793        C  0.81261603  0.57505677  0.04693762    -0.11700
C794        C  0.80164293  0.59286520  0.51549887     0.14800
C795        C  0.81723277  0.61013750  0.48918467     0.01700
C796        C  0.84371526  0.60816915  0.49314959    -0.16100
C797        C  0.85504408  0.58963091  0.52358586    -0.10900
C798        C  0.83900925  0.57409924  0.05255584     0.08400
C799        C  0.77360903  0.59289820  0.51108604     0.09500
S800        S  0.80462829  0.63474187  0.44935214    -0.25200
H801        H  0.85556925  0.62094359  0.47164320     0.19700
S802        S  0.85152015  0.55346019  0.10023966    -0.30900
H803        H  0.80078774  0.56267235  0.06925142     0.10100
C804        C  0.76131377  0.58396150  0.46802731     0.03300
C805        C  0.73467236  0.58372944  0.46610416    -0.13200
C806        C  0.71995608  0.59195195  0.50668727    -0.08900
C807        C  0.73236654  0.60275006  0.04558059     0.06700
C808        C  0.75891665  0.60222331  0.04762921    -0.14000
S809        S  0.77954054  0.57165714  0.41655508    -0.30900
H810        H  0.72525793  0.57636076  0.43333889     0.11000
S811        S  0.71607753  0.61839897  0.09598046    -0.28000
H812        H  0.76856825  0.61047423  0.07938431     0.08200
H813        H  0.87174268  0.56960175  0.11346928     0.26600
H814        H  0.75887882  0.56702651  0.38463053     0.21400
H815        H  0.69782487  0.63014378  0.06534126     0.26700
H816        H  0.78124446  0.63760103  0.47401344     0.15600
C817        C  0.35536525  0.10285289  0.29752286    -0.11700
C818        C  0.37158909  0.11523248  0.26397949     0.14800
C819        C  0.38710643  0.10070414  0.23190951     0.01700
C820        C  0.38497336  0.07421171  0.23214877    -0.16100
C821        C  0.36813556  0.06181944  0.26457848    -0.10900
C822        C  0.35374498  0.07633503  0.29869952     0.08400
C823        C  0.37155507  0.14328747  0.26311521     0.09500
S824        S  0.40985996  0.11472601  0.18980031    -0.25200
H825        H  0.39642338  0.06316333  0.20649432     0.19700
S826        S  0.33384357  0.06221703  0.34586346    -0.30900
H827        H  0.34394618  0.11397571  0.32312493     0.10100
C828        C  0.36028679  0.15697200  0.22383140     0.03300
C829        C  0.36000474  0.18359357  0.22542705    -0.13200
C830        C  0.37099504  0.19682799  0.26532480    -0.08900
C831        C  0.38337339  0.18294338  0.30341902     0.06700
C832        C  0.38288189  0.15639026  0.30257459    -0.14000
S833        S  0.34536198  0.14056918  0.17267791    -0.30900
H834        H  0.35062477  0.19412553  0.19604984     0.11000
S835        S  0.40134302  0.19772492  0.35253898    -0.28000
H836        H  0.39197910  0.14580319  0.33227965     0.08200
H837        H  0.34975239  0.04117763  0.35450625     0.26600
H838        H  0.34241334  0.16199830  0.14183486     0.21400
H839        H  0.41077704  0.21768466  0.32303463     0.26700
H840        H  0.41447121  0.13682282  0.21767589     0.15600
C841        C  0.38242744  0.10076596  0.46076770    -0.11700
C842        C  0.36680268  0.11522262  0.98274297     0.14800
C843        C  0.34871359  0.10359790  0.01418785     0.01700
C844        C  0.34899445  0.07719406  0.02036399    -0.16100
C845        C  0.36663683  0.06191130  0.99506133    -0.10900
C846        C  0.38273454  0.07426851  0.46554518     0.08400
C847        C  0.36854322  0.14315320  0.97804058     0.09500
S848        S  0.32505250  0.12137578  0.04809956    -0.25200
H849        H  0.33530970  0.06849798  0.04525291     0.19700
S850        S  0.40588926  0.05715935  0.42920842    -0.30900
H851        H  0.39652559  0.11003586  0.43759693     0.10100
C852        C  0.38119630  0.15775357  0.01418569     0.03300
C853        C  0.38101882  0.18431884  0.01043270    -0.13200
C854        C  0.36804668  0.19667433  0.97167436    -0.08900
C855        C  0.35263908  0.18226448  0.43889498     0.06700
C856        C  0.35327099  0.15570378  0.44171617    -0.14000
S857        S  0.39757645  0.14248398  0.06508985    -0.30900
H858        H  0.39107635  0.19555078  0.03786911     0.11000
S859        S  0.33306697  0.19617813  0.39097460    -0.28000
H860        H  0.34313586  0.14452716  0.41422814     0.08200
H861        H  0.38897054  0.03781052  0.41481996     0.26600
H862        H  0.40320453  0.16475888  0.09180595     0.21400
H863        H  0.32329871  0.21564049  0.42132859     0.26700
H864        H  0.32259382  0.14140605  0.01388700     0.15600
C865        C  0.33447346  0.73969963  0.21122231    -0.11700
C866        C  0.35136360  0.72486154  0.23913879     0.14800
C867        C  0.36935787  0.73682314  0.27019119     0.01700
C868        C  0.36926934  0.76328267  0.27449895    -0.16100
C869        C  0.35193151  0.77823549  0.24770739    -0.10900
C870        C  0.33481523  0.76624946  0.21454582     0.08400
C871        C  0.34904922  0.69694959  0.23723939     0.09500
S872        S  0.39252944  0.71941814  0.30613751    -0.25200
H873        H  0.38277252  0.77228150  0.29933386     0.19700
S874        S  0.31377436  0.78363964  0.17397682    -0.30900
H875        H  0.32099059  0.73050934  0.18660631     0.10100
C876        C  0.33641306  0.68355922  0.27523827     0.03300
C877        C  0.33626147  0.65695095  0.27438319    -0.13200
C878        C  0.34900033  0.64340516  0.23686135    -0.08900
C879        C  0.36200421  0.65703326  0.19918388     0.06700
C880        C  0.36118959  0.68361841  0.19893593    -0.14000
S881        S  0.32067569  0.70041334  0.32503960    -0.30900
H882        H  0.32631015  0.64662871  0.30333257     0.11000
S883        S  0.38186011  0.64190447  0.15325817    -0.28000
H884        H  0.37133102  0.69403823  0.17030452     0.08200
H885        H  0.33127440  0.80312723  0.16344265     0.26600
H886        H  0.31531007  0.67899027  0.35461047     0.21400
H887        H  0.39253370  0.62425954  0.18664572     0.26700
H888        H  0.39484892  0.69864431  0.27370976     0.15600
C889        C  0.33527233  0.68201261  0.06460771    -0.11700
C890        C  0.34766700  0.69640556  0.52489646     0.14800
C891        C  0.35860155  0.68375357  0.48393583     0.01700
C892        C  0.35772838  0.65727162  0.48160333    -0.16100
C893        C  0.34634157  0.64279887  0.51947631    -0.10900
C894        C  0.33436914  0.65538368  0.06178385     0.08400
C895        C  0.34679380  0.72446912  0.52698258     0.09500
S896        S  0.37358950  0.70030134  0.43294980    -0.25200
H897        H  0.36643252  0.64784726  0.45004093     0.19700
S898        S  0.31557603  0.63893674  0.10767122    -0.30900
H899        H  0.32546879  0.69167155  0.09463005     0.10100
C900        C  0.32903090  0.73833958  0.49865787     0.03300
C901        C  0.33076927  0.76493424  0.49676909    -0.13200
C902        C  0.34993232  0.77795003  0.52270323    -0.08900
C903        C  0.36535912  0.76428048  0.05693960     0.06700
C904        C  0.36391597  0.73772495  0.05890383    -0.14000
S905        S  0.30444921  0.72205451  0.46428973    -0.30900
H906        H  0.31758218  0.77560512  0.47388117     0.11000
S907        S  0.38753060  0.77957513  0.09831997    -0.28000
H908        H  0.37683047  0.72726863  0.08283889     0.08200
H909        H  0.30574485  0.62082466  0.07438080     0.26600
H910        H  0.29247967  0.74392581  0.44531500     0.21400
H911        H  0.37171919  0.80047777  0.10867344     0.26700
H912        H  0.38273814  0.72092784  0.46080726     0.15600
O913        O  0.37675900  0.85575307  0.58484416    -0.73300
O914        O  0.37647860  0.85311820  0.93665876    -0.74300
O915        O  0.37904181  0.89252230  0.00897793    -0.62900
O916        O  0.37375840  0.81647256  0.51414662    -0.71300
O917        O  0.33165893  0.81918786  0.51381252    -0.70800
O918        O  0.33690816  0.89535146  0.00885477    -0.62100
O919        O  0.33436768  0.85625448  0.93606990    -0.74600
O920        O  0.33456986  0.85816525  0.58529189    -0.73400
Cu921      Cu  0.37774368  0.85427337  0.01128114     1.04600
Cu922      Cu  0.33272318  0.85731708  0.51102731     1.04300
C923        C  0.35574521  0.85710756  0.60841630     0.92900
C924        C  0.35551001  0.85457995  0.91287600     0.92100
C925        C  0.35841765  0.90602666  0.50908302     0.84200
C926        C  0.35143749  0.80578554  0.01719484     0.90500
O927        O  0.33335725  0.81875874  0.75730292    -0.73300
O928        O  0.33644746  0.89504633  0.76156898    -0.74300
O929        O  0.33479051  0.85794237  0.68603779    -0.62900
O930        O  0.33468653  0.85579440  0.83466398    -0.71300
O931        O  0.37689079  0.85429387  0.83502292    -0.70800
O932        O  0.37699841  0.85581219  0.68594503    -0.62100
O933        O  0.37864291  0.89305423  0.76119555    -0.74600
O934        O  0.37555038  0.81720790  0.75859730    -0.73400
Cu935      Cu  0.33332974  0.85694631  0.76009478     1.04600
Cu936      Cu  0.37849256  0.85503918  0.76035124     1.04300
C937        C  0.35405337  0.80603027  0.75604980     0.92900
C938        C  0.35812122  0.90602267  0.76084500     0.92100
C939        C  0.35587765  0.85705953  0.66264383     0.84200
C940        C  0.35571440  0.85477842  0.85832783     0.90500
O941        O  0.38327676  0.98393757  0.58295548    -0.73300
O942        O  0.38441987  0.98180504  0.93426209    -0.74300
O943        O  0.38612842  0.02105205  0.00512168    -0.62900
O944        O  0.38155374  0.94492934  0.50981722    -0.71300
O945        O  0.33937032  0.94689255  0.50990025    -0.70800
O946        O  0.34398754  0.02311298  0.00579618    -0.62100
O947        O  0.34222887  0.98426538  0.93422809    -0.74600
O948        O  0.34108214  0.98566007  0.58337509    -0.73400
Cu949      Cu  0.38570580  0.98276859  0.00845309     1.04600
Cu950      Cu  0.33950356  0.98502482  0.50871887     1.04300
C951        C  0.36224279  0.98484349  0.60664272     0.92900
C952        C  0.36333245  0.98293333  0.91091473     0.92100
C953        C  0.36397162  0.03419082  0.50351777     0.84200
C954        C  0.35989518  0.93390290  0.50961842     0.90500
O955        O  0.38660262  0.02036167  0.75964884    -0.73300
O956        O  0.38145404  0.94447793  0.75861331    -0.74300
O957        O  0.38360889  0.98288481  0.68420906    -0.62900
O958        O  0.38431222  0.98201934  0.83308787    -0.71300
O959        O  0.34211243  0.98435291  0.83371371    -0.70800
O960        O  0.34149124  0.98600885  0.68505401    -0.62100
O961        O  0.33929168  0.94708389  0.75874649    -0.74600
O962        O  0.34448116  0.02324794  0.76186392    -0.73400
Cu963      Cu  0.38546570  0.98232923  0.75872437     1.04600
Cu964      Cu  0.34035630  0.98527765  0.75970340     1.04300
C965        C  0.36639147  0.03375126  0.76221356     0.92900
C966        C  0.35964320  0.93381686  0.75933157     0.92100
C967        C  0.36244657  0.98464569  0.66116013     0.84200
C968        C  0.36327686  0.98301996  0.85672958     0.90500
O969        O  0.89636426  0.60723486  0.02175133    -0.73300
O970        O  0.97251550  0.60024213  0.02154489    -0.74300
O971        O  0.93444042  0.60398323  0.94748020    -0.62900
O972        O  0.93537180  0.60352287  0.59605638    -0.71300
O973        O  0.93146285  0.56146509  0.59660684    -0.70800
O974        O  0.93029548  0.56194169  0.94745693    -0.62100
O975        O  0.96854415  0.55820071  0.02089340    -0.74600
O976        O  0.89271147  0.56518246  0.02271428    -0.73400
Cu977      Cu  0.93458027  0.60522065  0.02187105     1.04600
Cu978      Cu  0.93047994  0.56021612  0.02179749     1.04300
C979        C  0.88255673  0.58724568  0.02252636     0.92900
C980        C  0.98248355  0.57808390  0.02082518     0.92100
C981        C  0.93240467  0.58297864  0.92407407     0.84200
C982        C  0.93349255  0.58254297  0.61974900     0.90500
O983        O  0.93121592  0.56167983  0.69775238    -0.73300
O984        O  0.93081772  0.56186562  0.84652529    -0.74300
O985        O  0.89325088  0.56578745  0.77209882    -0.62900
O986        O  0.96893075  0.55759378  0.77268162    -0.71300
O987        O  0.97325045  0.59960711  0.77282467    -0.70800
O988        O  0.89739056  0.60780130  0.77056582    -0.62100
O989        O  0.93476434  0.60392706  0.84617439    -0.74600
O990        O  0.93580972  0.60367088  0.69734460    -0.73400
Cu991      Cu  0.93089939  0.56027010  0.77223620     1.04600
Cu992      Cu  0.93547981  0.60523732  0.77171705     1.04300
C993        C  0.93354265  0.58263620  0.67413246     0.92900
C994        C  0.93263911  0.58294141  0.86974281     0.92100
C995        C  0.88337724  0.58797133  0.77154171     0.84200
C996        C  0.98302232  0.57735148  0.77304625     0.90500
O997        O  0.05876940  0.54893880  0.94741461    -0.73300
O998        O  0.05738972  0.54801801  0.59659961    -0.74300
O999        O  0.02024860  0.55217510  0.52077905    -0.62900
O1000       O  0.09566388  0.54451345  0.02402191    -0.71300
O1001       O  0.10031429  0.58644188  0.02502897    -0.70800
O1002       O  0.02439507  0.59504693  0.02027462    -0.62100
O1003       O  0.06184957  0.59003062  0.59608487    -0.74600
O1004       O  0.06351018  0.59090423  0.94766713    -0.73400
Cu1005     Cu  0.05765640  0.54737767  0.02186320     1.04600
Cu1006     Cu  0.06254144  0.59229653  0.02220527     1.04300
C1007       C  0.06137057  0.56995190  0.92409724     0.92900
C1008       C  0.05950878  0.56912301  0.61972001     0.92100
C1009       C  0.01023227  0.57530634  0.02030861     0.84200
C1010       C  0.10993402  0.56412151  0.02633856     0.90500
O1011       O  0.10026704  0.58762986  0.76962098    -0.73300
O1012       O  0.02464281  0.59441751  0.77283250    -0.74300
O1013       O  0.06321163  0.59103921  0.84606384    -0.62900
O1014       O  0.06169355  0.59052440  0.69701220    -0.71300
O1015       O  0.05790240  0.54844878  0.69776850    -0.70800
O1016       O  0.05968885  0.54895314  0.84633397    -0.62100
O1017       O  0.02073064  0.55236624  0.77356013    -0.74600
O1018       O  0.09700027  0.54557566  0.76961400    -0.73400
Cu1019     Cu  0.06259154  0.59235825  0.77144122     1.04600
Cu1020     Cu  0.05870499  0.54734444  0.77196596     1.04300
C1021       C  0.11063544  0.56569171  0.76804629     0.92900
C1022       C  0.01074320  0.57453877  0.77329684     0.92100
C1023       C  0.06154158  0.57000029  0.86964508     0.84200
C1024       C  0.05961409  0.56938530  0.67401337     0.90500
O1025       O  0.67173510  0.00243189  0.92596377    -0.73300
O1026       O  0.67258062  0.00421202  0.57521370    -0.74300
O1027       O  0.67030651  0.96517735  0.00195627    -0.62900
O1028       O  0.67360795  0.04153521  0.99680491    -0.71300
O1029       O  0.63142821  0.04314816  0.99862861    -0.70800
O1030       O  0.62812270  0.96727532  0.00226980    -0.62100
O1031       O  0.63037898  0.00579417  0.57477540    -0.74600
O1032       O  0.62953149  0.00461447  0.92651057    -0.73400
Cu1033     Cu  0.67353496  0.00332248  0.00000110     1.04600
Cu1034     Cu  0.62838481  0.00532406  0.00093478     1.04300
C1035       C  0.65057751  0.00358990  0.90288695     0.92900
C1036       C  0.65141292  0.00531488  0.59846749     0.92100
C1037       C  0.64860341  0.95423814  0.00203216     0.84200
C1038       C  0.65292519  0.05428594  0.99530364     0.90500
O1039       O  0.67227545  0.00437982  0.67662600    -0.73300
O1040       O  0.67172521  0.00345700  0.82537017    -0.74300
O1041       O  0.66989207  0.96592768  0.75086003    -0.62900
O1042       O  0.67412806  0.04207340  0.75231936    -0.71300
O1043       O  0.63197544  0.04441411  0.75339249    -0.70800
O1044       O  0.62771721  0.96822213  0.75004055    -0.62100
O1045       O  0.62950915  0.00539107  0.82527335    -0.74600
O1046       O  0.63012718  0.00704011  0.67632707    -0.73400
Cu1047     Cu  0.67347582  0.00390331  0.75115006     1.04600
Cu1048     Cu  0.62834695  0.00638296  0.75103039     1.04300
C1049       C  0.65126153  0.00570045  0.65299422     0.92900
C1050       C  0.65057619  0.00409167  0.84866438     0.92100
C1051       C  0.64815448  0.95509791  0.75113711     0.84200
C1052       C  0.65372939  0.05521607  0.75466420     0.90500
O1053       O  0.62242294  0.87708897  0.92869241    -0.73300
O1054       O  0.62357729  0.87821581  0.57746667    -0.74300
O1055       O  0.62515708  0.91578204  0.00194872    -0.62900
O1056       O  0.61980401  0.83973978  0.00563384    -0.71300
O1057       O  0.66190062  0.83685488  0.00664108    -0.70800
O1058       O  0.66730641  0.91307492  0.00144704    -0.62100
O1059       O  0.66577072  0.87580592  0.57777684    -0.74600
O1060       O  0.66454078  0.87400339  0.92883901    -0.73400
Cu1061     Cu  0.62103240  0.87789210  0.00333794     1.04600
Cu1062     Cu  0.66611861  0.87487057  0.00340493     1.04300
C1063       C  0.64351289  0.87558645  0.90527926     0.92900
C1064       C  0.64464423  0.87735350  0.60094620     0.92100
C1065       C  0.64699605  0.92640855  0.00176949     0.84200
C1066       C  0.64001051  0.82632196  0.00846262     0.90500
O1067       O  0.66553883  0.87665594  0.67873564    -0.73300
O1068       O  0.66486029  0.87540594  0.82753834    -0.74300
O1069       O  0.66328988  0.83817600  0.75127144    -0.62900
O1070       O  0.66714455  0.91420714  0.75360850    -0.71300
O1071       O  0.62496313  0.91639811  0.75337179    -0.70800
O1072       O  0.62113242  0.84026836  0.74988642    -0.62100
O1073       O  0.62267581  0.87736480  0.82698879    -0.74600
O1074       O  0.62334329  0.87905336  0.67818592    -0.73400
Cu1075     Cu  0.66668340  0.87606552  0.75299947     1.04600
Cu1076     Cu  0.62154468  0.87837236  0.75229772     1.04300
C1077       C  0.64452076  0.87781491  0.65512855     0.92900
C1078       C  0.64366969  0.87605157  0.85074234     0.92100
C1079       C  0.64164163  0.82726713  0.74852743     0.84200
C1080       C  0.64667626  0.92728219  0.75283564     0.90500
O1081       O  0.36436240  0.31354652  0.50998634    -0.73300
O1082       O  0.36694522  0.23747028  0.51383081    -0.74300
O1083       O  0.40355993  0.27718602  0.51441973    -0.62900
O1084       O  0.32798336  0.27393243  0.51056429    -0.71300
O1085       O  0.32921326  0.27320449  0.92635826    -0.70800
O1086       O  0.40562450  0.27620670  0.92963410    -0.62100
O1087       O  0.36859507  0.23656107  0.92880892    -0.74600
O1088       O  0.36603102  0.31272967  0.92629413    -0.73400
Cu1089     Cu  0.36572026  0.27556747  0.51501539     1.04600
Cu1090     Cu  0.36744379  0.27464033  0.92482664     1.04300
C1091       C  0.36509199  0.32512691  0.46819361     0.92900
C1092       C  0.36684267  0.22495319  0.47312315     0.92100
C1093       C  0.41636459  0.27699144  0.47412976     0.84200
C1094       C  0.31636132  0.27294545  0.46901280     0.90500
O1095       O  0.36674449  0.23634240  0.80561330    -0.73300
O1096       O  0.36304502  0.31224380  0.80740872    -0.74300
O1097       O  0.32682225  0.27305570  0.79793438    -0.62900
O1098       O  0.40277376  0.27596705  0.81458266    -0.71300
O1099       O  0.40738318  0.27581046  0.73253261    -0.70800
O1100       O  0.33165785  0.27430999  0.71607778    -0.62100
O1101       O  0.36833457  0.31308638  0.72558885    -0.74600
O1102       O  0.37074434  0.23690443  0.72349411    -0.73400
Cu1103     Cu  0.36467698  0.27432274  0.80924308     1.04600
Cu1104     Cu  0.36968956  0.27502265  0.72156286     1.04300
C1105       C  0.36975617  0.22462055  0.76447462     0.92900
C1106       C  0.36474433  0.32466361  0.76675885     0.92100
C1107       C  0.31722329  0.27410214  0.75428222     0.84200
C1108       C  0.41703381  0.27602083  0.77609201     0.90500
O1109       O  0.35083943  0.53001013  0.95292357    -0.73300
O1110       O  0.34691937  0.60518263  0.97325719    -0.74300
O1111       O  0.38707984  0.57004448  0.95863423    -0.62900
O1112       O  0.31086297  0.56493355  0.96848373    -0.71300
O1113       O  0.31449623  0.55944718  0.54928333    -0.70800
O1114       O  0.38998565  0.56551652  0.53787354    -0.62100
O1115       O  0.34962391  0.60049247  0.55280975    -0.74600
O1116       O  0.35470297  0.52470053  0.53305253    -0.73400
Cu1117     Cu  0.34882510  0.56776420  0.96050089     1.04600
Cu1118     Cu  0.35233377  0.56235327  0.54608956     1.04300
C1119       C  0.35275616  0.51532451  0.99052817     0.92900
C1120       C  0.34754734  0.61471090  0.01690925     0.92100
C1121       C  0.40043770  0.56869677  0.99828221     0.84200
C1122       C  0.30050316  0.56082960  0.01078834     0.90500
O1123       O  0.31408546  0.56254887  0.71241560    -0.73300
O1124       O  0.39001782  0.56604074  0.71079611    -0.74300
O1125       O  0.35392817  0.52623210  0.71606184    -0.62900
O1126       O  0.35051689  0.60221240  0.70789451    -0.71300
O1127       O  0.35137839  0.60419525  0.79023236    -0.70800
O1128       O  0.35373293  0.52853381  0.79840085    -0.62100
O1129       O  0.39048931  0.56766560  0.79315661    -0.74600
O1130       O  0.31423065  0.56530267  0.79460673    -0.73400
Cu1131     Cu  0.35206691  0.56412514  0.70892348     1.04600
Cu1132     Cu  0.35240889  0.56645074  0.79697521     1.04300
C1133       C  0.30205011  0.56389414  0.75355373     0.92900
C1134       C  0.40228384  0.56781310  0.75160790     0.92100
C1135       C  0.35476360  0.51540038  0.75860669     0.84200
C1136       C  0.35106658  0.61523697  0.74793511     0.90500
O1137       O  0.65802362  0.25639571  0.50832891    -0.73300
O1138       O  0.65640440  0.33257666  0.50851380    -0.74300
O1139       O  0.61954530  0.29327680  0.51436588    -0.62900
O1140       O  0.69506164  0.29536103  0.50341421    -0.71300
O1141       O  0.69330053  0.29465239  0.92969186    -0.70800
O1142       O  0.61718845  0.29603239  0.93828616    -0.62100
O1143       O  0.65613045  0.33323755  0.93433161    -0.74600
O1144       O  0.65438847  0.25722143  0.93313666    -0.73400
Cu1145     Cu  0.65738744  0.29441359  0.51148452     1.04600
Cu1146     Cu  0.65516531  0.29529153  0.93095093     1.04300
C1147       C  0.65543344  0.24493429  0.97406312     0.92900
C1148       C  0.65719718  0.34507214  0.97567569     0.92100
C1149       C  0.60652056  0.29500585  0.98091570     0.84200
C1150       C  0.70633368  0.29518616  0.96976986     0.90500
O1151       O  0.69168979  0.29880536  0.72055022    -0.73300
O1152       O  0.61628818  0.29517320  0.73864837    -0.74300
O1153       O  0.65213697  0.33479991  0.73190923    -0.62900
O1154       O  0.65587092  0.25879053  0.72832429    -0.71300
O1155       O  0.66100413  0.25810869  0.81005596    -0.70800
O1156       O  0.65667730  0.33401636  0.81393818    -0.62100
O1157       O  0.62103276  0.29373029  0.82066570    -0.74600
O1158       O  0.69690029  0.29829161  0.80230919    -0.73400
Cu1159     Cu  0.65382537  0.29690203  0.72703638     1.04600
Cu1160     Cu  0.65911737  0.29600821  0.81462786     1.04300
C1161       C  0.70628805  0.29935299  0.75845146     0.92900
C1162       C  0.60674613  0.29405400  0.78224201     0.92100
C1163       C  0.65344682  0.34638015  0.77356069     0.84200
C1164       C  0.65920539  0.24637037  0.76871005     0.90500
O1165       O  0.63904276  0.62506903  0.96284817    -0.73300
O1166       O  0.64583863  0.54956966  0.94856449    -0.74300
O1167       O  0.60436507  0.58383122  0.95247609    -0.62900
O1168       O  0.68047780  0.59060198  0.95936875    -0.71300
O1169       O  0.67882452  0.58557880  0.54275869    -0.70800
O1170       O  0.60306623  0.57891300  0.53382028    -0.62100
O1171       O  0.64449514  0.54456589  0.52912519    -0.74600
O1172       O  0.63761637  0.62024343  0.54701452    -0.73400
Cu1173     Cu  0.64247728  0.58745134  0.95294083     1.04600
Cu1174     Cu  0.64090335  0.58215146  0.54103029     1.04300
C1175       C  0.63718508  0.63514936  0.00592042     0.92900
C1176       C  0.64615205  0.53561447  0.98743707     0.92100
C1177       C  0.59175495  0.58017063  0.99251595     0.84200
C1178       C  0.69161130  0.58987045  0.00161878     0.90500
O1179       O  0.60569855  0.58218680  0.71011262    -0.73300
O1180       O  0.68143848  0.58842120  0.71611197    -0.74300
O1181       O  0.64634034  0.54750690  0.71914522    -0.62900
O1182       O  0.64082025  0.62306258  0.70721293    -0.71300
O1183       O  0.63898802  0.62606933  0.78936989    -0.70800
O1184       O  0.64481874  0.55044670  0.80142938    -0.62100
O1185       O  0.67969778  0.59132071  0.79821394    -0.74600
O1186       O  0.60390357  0.58486472  0.79240343    -0.73400
Cu1187     Cu  0.64362688  0.58519373  0.71029508     1.04600
Cu1188     Cu  0.64174493  0.58832594  0.79824012     1.04300
C1189       C  0.59288746  0.58199860  0.75044944     0.92900
C1190       C  0.69259177  0.59111934  0.75797766     0.92100
C1191       C  0.64650519  0.53703895  0.76203677     0.84200
C1192       C  0.63955045  0.63658306  0.74650528     0.90500
O1193       O  0.07477601  0.25930988  0.89831149    -0.73300
O1194       O  0.07344471  0.25876725  0.54676191    -0.74300
O1195       O  0.03571978  0.26045718  0.47161115    -0.62900
O1196       O  0.11201021  0.25776760  0.47409175    -0.71300
O1197       O  0.11406515  0.30027244  0.97232253    -0.70800
O1198       O  0.03735622  0.30265512  0.47232960    -0.62100
O1199       O  0.07534851  0.30096754  0.54688056    -0.74600
O1200       O  0.07611810  0.30152000  0.89754308    -0.73400
Cu1201     Cu  0.07383844  0.25755898  0.47249113     1.04600
Cu1202     Cu  0.07606430  0.30327519  0.97201496     1.04300
C1203       C  0.07548360  0.28031016  0.87449810     0.92900
C1204       C  0.07450479  0.27981667  0.57020455     0.92100
C1205       C  0.02454226  0.28203537  0.47206941     0.84200
C1206       C  0.12487198  0.27839751  0.47483366     0.90500
O1207       O  0.07639803  0.30107819  0.79634204    -0.73300
O1208       O  0.07579512  0.30083205  0.64776994    -0.74300
O1209       O  0.03796319  0.30234533  0.72235577    -0.62900
O1210       O  0.11430601  0.29924807  0.72129240    -0.71300
O1211       O  0.11266034  0.25721532  0.72258073    -0.70800
O1212       O  0.03612568  0.26016633  0.72240025    -0.62100
O1213       O  0.07430054  0.25861773  0.64800592    -0.74600
O1214       O  0.07443790  0.25889224  0.79699752    -0.73400
Cu1215     Cu  0.07618228  0.30232870  0.72194748     1.04600
Cu1216     Cu  0.07433511  0.25723206  0.72250793     1.04300
C1217       C  0.07546631  0.28007191  0.82009688     0.92900
C1218       C  0.07486670  0.27973033  0.62450376     0.92100
C1219       C  0.02501840  0.28178119  0.72220084     0.84200
C1220       C  0.12566257  0.27773668  0.72167135     0.90500
O1221       O  0.90982655  0.30841883  0.97173401    -0.73300
O1222       O  0.98608357  0.30556484  0.97264540    -0.74300
O1223       O  0.94819673  0.30736070  0.89806390    -0.62900
O1224       O  0.94714817  0.30667366  0.54646380    -0.71300
O1225       O  0.94551808  0.26446905  0.54701156    -0.70800
O1226       O  0.94632449  0.26515559  0.89792834    -0.62100
O1227       O  0.98440314  0.26336436  0.97222246    -0.74600
O1228       O  0.90760400  0.26595274  0.47208167    -0.73400
Cu1229     Cu  0.94800073  0.30856604  0.97233405     1.04600
Cu1230     Cu  0.94561011  0.26288660  0.47241561     1.04300
C1231       C  0.89705016  0.28775229  0.97231327     0.92900
C1232       C  0.99669135  0.28321766  0.47240238     0.92100
C1233       C  0.94731259  0.28631206  0.87460413     0.84200
C1234       C  0.94629147  0.28565179  0.57017506     0.90500
O1235       O  0.94621676  0.26531202  0.79703801    -0.73300
O1236       O  0.94489833  0.26495888  0.64846235    -0.74300
O1237       O  0.98385223  0.26278433  0.72172195    -0.62900
O1238       O  0.90738331  0.26808270  0.72485218    -0.71300
O1239       O  0.91026303  0.31018273  0.72271572    -0.70800
O1240       O  0.98632399  0.30493090  0.72184530    -0.62100
O1241       O  0.94802025  0.30707655  0.64761769    -0.74600
O1242       O  0.94845445  0.30749799  0.79672831    -0.73400
Cu1243     Cu  0.94548259  0.26380133  0.72291795     1.04600
Cu1244     Cu  0.94837739  0.30888831  0.72212387     1.04300
C1245       C  0.94736534  0.28640542  0.82027663     0.92900
C1246       C  0.94636037  0.28590444  0.62460359     0.92100
C1247       C  0.99710499  0.28317007  0.72186435     0.84200
C1248       C  0.89683128  0.29000358  0.72509839     0.90500
C1249       C  0.77716872  0.31017124  0.77848571    -0.11700
C1250       C  0.78744224  0.29816889  0.73657262     0.14800
C1251       C  0.77090796  0.28768139  0.70071256     0.01700
C1252       C  0.74458559  0.28914313  0.70809829    -0.16100
C1253       C  0.73422218  0.30050228  0.75092395    -0.10900
C1254       C  0.75089430  0.31182116  0.78573164     0.08400
C1255       C  0.81545493  0.29641628  0.73245618     0.09500
S1256       S  0.78204082  0.27184286  0.64527364    -0.25200
H1257       H  0.73210607  0.28054154  0.68079308     0.19700
S1258       S  0.74002369  0.32975846  0.83865012    -0.30900
H1259       H  0.78982729  0.31868565  0.80549406     0.10100
C1260       C  0.82945256  0.31157176  0.69895364     0.03300
C1261       C  0.85606046  0.30921024  0.69728556    -0.13200
C1262       C  0.86889208  0.29216736  0.72881981    -0.08900
C1263       C  0.85477925  0.27779116  0.76361929     0.06700
C1264       C  0.82829895  0.27975164  0.76440998    -0.14000
S1265       S  0.81348838  0.33417681  0.65913503    -0.30900
H1266       H  0.86692299  0.32052224  0.67117614     0.11000
S1267       S  0.86944723  0.25783582  0.81002058    -0.28000
H1268       H  0.81759650  0.26846048  0.79074172     0.08200
H1269       H  0.71973107  0.34130066  0.81306187     0.26600
H1270       H  0.83539972  0.34335839  0.63507441     0.21400
H1271       H  0.89001255  0.27430326  0.81892997     0.26700
H1272       H  0.80538964  0.26344338  0.66460567     0.15600
C1273       C  0.66177449  0.46996477  0.80515015    -0.11700
C1274       C  0.64787759  0.45569970  0.77058712     0.14800
C1275       C  0.63334402  0.46826818  0.73391902     0.01700
C1276       C  0.63375020  0.49477174  0.73153749    -0.16100
C1277       C  0.64789139  0.50914046  0.76565500    -0.10900
C1278       C  0.66222324  0.49652168  0.80270569     0.08400
C1279       C  0.65000807  0.42777159  0.77201776     0.09500
S1280       S  0.61393116  0.45167611  0.68910951    -0.25200
H1281       H  0.62248468  0.50428654  0.70339785     0.19700
S1282       S  0.68259306  0.51298416  0.84592809    -0.30900
H1283       H  0.67303896  0.46029764  0.83308640     0.10100
C1284       C  0.66359753  0.41445718  0.73520533     0.03300
C1285       C  0.66414217  0.38787956  0.73656998    -0.13200
C1286       C  0.65165642  0.37432771  0.77436321    -0.08900
C1287       C  0.63820935  0.38783040  0.81155318     0.06700
C1288       C  0.63786008  0.41439788  0.81027972    -0.14000
S1289       S  0.68083046  0.43133990  0.68732768    -0.30900
H1290       H  0.67470180  0.37756715  0.70848398     0.11000
S1291       S  0.62017624  0.37265699  0.86029757    -0.28000
H1292       H  0.62739736  0.42475077  0.83851270     0.08200
H1293       H  0.69059933  0.53163745  0.81179533     0.26600
H1294       H  0.68964815  0.40981763  0.66154573     0.21400
H1295       H  0.61271883  0.35132500  0.83267104     0.26700
H1296       H  0.60901508  0.43017736  0.71866397     0.15600
C1297       C  0.77525230  0.30690008  0.49280318    -0.11700
C1298       C  0.78774972  0.29218664  0.96384402     0.14800
C1299       C  0.77294138  0.27960022  0.92762030     0.01700
C1300       C  0.74643575  0.28150786  0.92972617    -0.16100
C1301       C  0.73434054  0.29557899  0.96722955    -0.10900
C1302       C  0.74881296  0.30899625  0.49439951     0.08400
C1303       C  0.81571295  0.29088956  0.96477369     0.09500
S1304       S  0.78614301  0.26038901  0.87832604    -0.25200
H1305       H  0.73513547  0.27141935  0.90246365     0.19700
S1306       S  0.73551297  0.32858657  0.54288695    -0.30900
H1307       H  0.78653803  0.31616374  0.52119185     0.10100
C1308       C  0.83066594  0.30771611  0.93645071     0.03300
C1309       C  0.85721226  0.30644261  0.93997814    -0.13200
C1310       C  0.86904324  0.28882058  0.97169031    -0.08900
C1311       C  0.85259551  0.27233087  0.49596156     0.06700
C1312       C  0.82624465  0.27362013  0.48961886    -0.14000
S1313       S  0.81589510  0.33104122  0.89656115    -0.30900
H1314       H  0.86883220  0.31906910  0.91769185     0.11000
S1315       S  0.86452714  0.25027875  0.54172839    -0.28000
H1316       H  0.81405636  0.26113391  0.51111988     0.08200
H1317       H  0.71649937  0.33928674  0.51255244     0.26600
H1318       H  0.83845501  0.34063289  0.87561449     0.21400
H1319       H  0.88405917  0.26632235  0.55881473     0.26700
H1320       H  0.81187298  0.26123404  0.89180719     0.15600
C1321       C  0.63980042  0.46735461  0.94255189    -0.11700
C1322       C  0.65366582  0.45418331  0.47095195     0.14800
C1323       C  0.66604283  0.46736206  0.50968008     0.01700
C1324       C  0.66306677  0.49367985  0.51368234    -0.16100
C1325       C  0.64869912  0.50777190  0.98277927    -0.10900
C1326       C  0.63635359  0.49369293  0.94502779     0.08400
C1327       C  0.65338967  0.42613622  0.46897570     0.09500
S1328       S  0.68562263  0.45165939  0.55543928    -0.25200
H1329       H  0.67251288  0.50361285  0.54378497     0.19700
S1330       S  0.61465021  0.50778812  0.90112289    -0.30900
H1331       H  0.62981936  0.45653609  0.91432149     0.10100
C1332       C  0.63889482  0.41183997  0.50307720     0.03300
C1333       C  0.64027372  0.38524541  0.50207488    -0.13200
C1334       C  0.65769087  0.37310891  0.97611737    -0.08900
C1335       C  0.67127615  0.38748261  0.94036527     0.06700
C1336       C  0.66950085  0.41400882  0.94067674    -0.14000
S1337       S  0.61821266  0.42749572  0.54713677    -0.30900
H1338       H  0.62906237  0.37417640  0.52797264     0.11000
S1339       S  0.69203527  0.37333470  0.89481916    -0.28000
H1340       H  0.67986285  0.42498039  0.91325199     0.08200
H1341       H  0.60353566  0.52458986  0.93553114     0.26600
H1342       H  0.60859809  0.40532910  0.56961323     0.21400
H1343       H  0.70100371  0.35395543  0.92637257     0.26700
H1344       H  0.69323891  0.43129156  0.52511924     0.15600
C1345       C  0.47080969  0.58393480  0.78379554    -0.11700
C1346       C  0.48383277  0.57200485  0.74482065     0.14800
C1347       C  0.47000074  0.55862523  0.70828531     0.01700
C1348       C  0.44345754  0.55799805  0.71107569    -0.16100
C1349       C  0.43031160  0.56989891  0.75020820    -0.10900
C1350       C  0.44430878  0.58331814  0.78665684     0.08400
C1351       C  0.51182247  0.57398298  0.74399365     0.09500
S1352       S  0.48491403  0.54169122  0.65768479    -0.25200
H1353       H  0.43301455  0.54760202  0.68295422     0.19700
S1354       S  0.42970366  0.60124846  0.83612233    -0.30900
H1355       H  0.48141328  0.59433862  0.81164448     0.10100
C1356       C  0.52474494  0.58878839  0.70830630     0.03300
C1357       C  0.55131452  0.59070014  0.71065627    -0.13200
C1358       C  0.56511862  0.57836695  0.74834257    -0.08900
C1359       C  0.55204327  0.56313619  0.78334827     0.06700
C1360       C  0.52560707  0.56136582  0.78107085    -0.14000
S1361       S  0.50741056  0.60617068  0.66128725    -0.30900
H1362       H  0.56132699  0.60244189  0.68394354     0.11000
S1363       S  0.56791201  0.54465505  0.83051220    -0.28000
H1364       H  0.51566355  0.54971461  0.80803061     0.08200
H1365       H  0.41057620  0.61169914  0.80572303     0.26600
H1366       H  0.52871150  0.61369038  0.63322589     0.21400
H1367       H  0.58841571  0.53748725  0.79994491     0.26700
H1368       H  0.50809753  0.53676494  0.68177942     0.15600
C1369       C  0.52379833  0.56011280  0.52007343    -0.11700
C1370       C  0.51015257  0.57438090  0.98794300     0.14800
C1371       C  0.52334495  0.59009760  0.95395770     0.01700
C1372       C  0.54995755  0.59080423  0.95500328    -0.16100
C1373       C  0.56382431  0.57681290  0.99031014    -0.10900
C1374       C  0.55037506  0.56068505  0.52188273     0.08400
C1375       C  0.48203782  0.57287724  0.98930960     0.09500
S1376       S  0.50748027  0.61037641  0.90954540    -0.25200
H1377       H  0.55986672  0.60317309  0.92923631     0.19700
S1378       S  0.56563315  0.53991453  0.56615304    -0.30900
H1379       H  0.51352630  0.54809356  0.54594055     0.10100
C1380       C  0.46788521  0.56120389  0.95113386     0.03300
C1381       C  0.44123832  0.56061848  0.95437500    -0.13200
C1382       C  0.42845527  0.57111516  0.99544343    -0.08900
C1383       C  0.44299283  0.58313621  0.53103014     0.06700
C1384       C  0.46950879  0.58346545  0.52759886    -0.14000
S1385       S  0.48375378  0.54601986  0.89956797    -0.30900
H1386       H  0.43034007  0.55131691  0.92547668     0.11000
S1387       S  0.42904300  0.59820315  0.58473939    -0.28000
H1388       H  0.48049219  0.59208037  0.55722514     0.08200
H1389       H  0.58552208  0.53286221  0.53393851     0.26600
H1390       H  0.46175454  0.54067276  0.87173898     0.21400
H1391       H  0.40894045  0.60953218  0.55820605     0.26700
H1392       H  0.48510066  0.61406344  0.93716368     0.15600
C1393       C  0.19483217  0.25518836  0.71576556    -0.11700
C1394       C  0.20765999  0.27675661  0.73323635     0.14800
C1395       C  0.19358282  0.29892368  0.74438169     0.01700
C1396       C  0.16710519  0.29868132  0.73916375    -0.16100
C1397       C  0.15400619  0.27693674  0.72270699    -0.10900
C1398       C  0.16838218  0.25511872  0.70957668     0.08400
C1399       C  0.23568992  0.27557457  0.73844230     0.09500
S1400       S  0.20776646  0.32825221  0.76568889    -0.25200
H1401       H  0.15659574  0.31566794  0.74909012     0.19700
S1402       S  0.15458504  0.22698567  0.68262043    -0.30900
H1403       H  0.20564512  0.23835268  0.70600984     0.10100
C1404       C  0.24722591  0.26205985  0.77768120     0.03300
C1405       C  0.27381234  0.26211620  0.78230375    -0.13200
C1406       C  0.28921646  0.27519980  0.74810567    -0.08900
C1407       C  0.27745433  0.28895847  0.70900066     0.06700
C1408       C  0.25095503  0.28862296  0.70418672    -0.14000
S1409       S  0.22805121  0.24495031  0.82217640    -0.30900
H1410       H  0.28268550  0.25170097  0.81242041     0.11000
S1411       S  0.29488065  0.30862814  0.66589007    -0.28000
H1412       H  0.24206181  0.29924074  0.67430548     0.08200
H1413       H  0.13872413  0.24057514  0.64985086     0.26600
H1414       H  0.24838613  0.23537529  0.85049356     0.21400
H1415       H  0.31133746  0.31864149  0.70218181     0.26700
H1416       H  0.23180443  0.31892014  0.77869897     0.15600
C1417       C  0.48767463  0.26385597  0.75869504    -0.11700
C1418       C  0.49807487  0.28170203  0.79154467     0.14800
C1419       C  0.48168851  0.29701454  0.82041930     0.01700
C1420       C  0.45534778  0.29426438  0.81554742    -0.16100
C1421       C  0.44489959  0.27671932  0.78203325    -0.10900
C1422       C  0.46133988  0.26108521  0.75378612     0.08400
C1423       C  0.52596034  0.28524529  0.79179645     0.09500
S1424       S  0.49309761  0.32103638  0.86264037    -0.25200
H1425       H  0.44288488  0.30634723  0.83729335     0.19700
S1426       S  0.45006828  0.23709117  0.71129581    -0.30900
H1427       H  0.50021807  0.25216607  0.73632963     0.10100
C1428       C  0.54234301  0.26809521  0.81625244     0.03300
C1429       C  0.56868089  0.27225484  0.81488374    -0.13200
C1430       C  0.57895380  0.29265319  0.78788878    -0.08900
C1431       C  0.56244813  0.30987515  0.76356849     0.06700
C1432       C  0.53617849  0.30602127  0.76601648    -0.14000
S1433       S  0.52988525  0.24038480  0.84743353    -0.30900
H1434       H  0.58140110  0.25892336  0.83284268     0.11000
S1435       S  0.57346414  0.33709759  0.72873408    -0.28000
H1436       H  0.52355861  0.31916845  0.74721564     0.08200
H1437       H  0.42834295  0.23057449  0.73891587     0.26600
H1438       H  0.55281052  0.23285804  0.87004095     0.21400
H1439       H  0.59637118  0.34047943  0.75451087     0.26700
H1440       H  0.51672651  0.30965245  0.87230489     0.15600
C1441       C  0.37013606  0.44825272  0.80167969    -0.11700
C1442       C  0.35802230  0.43396047  0.76475524     0.14800
C1443       C  0.34470910  0.44646182  0.72631066     0.01700
C1444       C  0.34439091  0.47299044  0.72483716    -0.16100
C1445       C  0.35664049  0.48744967  0.76153558    -0.10900
C1446       C  0.36992217  0.47481785  0.80016236     0.08400
C1447       C  0.36054960  0.40608015  0.76606042     0.09500
S1448       S  0.32779673  0.42973469  0.67804146    -0.25200
H1449       H  0.33404183  0.48241359  0.69525930     0.19700
S1450       S  0.38832052  0.49124379  0.84668969    -0.30900
H1451       H  0.38054619  0.43862380  0.83090220     0.10100
C1452       C  0.37685178  0.39324625  0.73299158     0.03300
C1453       C  0.37773490  0.36663905  0.73383629    -0.13200
C1454       C  0.36264825  0.35263651  0.76716003    -0.08900
C1455       C  0.34623580  0.36570586  0.80017975     0.06700
C1456       C  0.34577484  0.39226415  0.79990703    -0.14000
S1457       S  0.39685342  0.41080483  0.69043281    -0.30900
H1458       H  0.39045282  0.35669492  0.70888073     0.11000
S1459       S  0.32435060  0.34977807  0.84142305    -0.28000
H1460       H  0.33312610  0.40225247  0.82502300     0.08200
H1461       H  0.39826988  0.50939815  0.81347571     0.26600
H1462       H  0.40728877  0.38961789  0.66592306     0.21400
H1463       H  0.31744636  0.33093799  0.80685605     0.26700
H1464       H  0.32206474  0.40792004  0.70608437     0.15600
C1465       C  0.19496174  0.29637191  0.48684880    -0.11700
C1466       C  0.20728014  0.27363936  0.97127443     0.14800
C1467       C  0.19198211  0.25218393  0.96111738     0.01700
C1468       C  0.16551475  0.25446891  0.96320637    -0.16100
C1469       C  0.15310970  0.27721826  0.47707752    -0.10900
C1470       C  0.16850444  0.29839156  0.48975298     0.08400
C1471       C  0.23537302  0.27281959  0.96896621     0.09500
S1472       S  0.20457720  0.22126193  0.94528290    -0.25200
H1473       H  0.15407261  0.23798221  0.95401130     0.19700
S1474       S  0.15601763  0.32816514  0.51214570    -0.30900
H1475       H  0.20659061  0.31273129  0.49614828     0.10100
C1476       C  0.24895841  0.28658255  0.93258537     0.03300
C1477       C  0.27557031  0.28536507  0.93179206    -0.13200
C1478       C  0.28838224  0.27137780  0.46863480    -0.08900
C1479       C  0.27478172  0.25689578  0.50418330     0.06700
C1480       C  0.24825541  0.25819529  0.50540921    -0.14000
S1481       S  0.23246805  0.30587257  0.88737910    -0.30900
H1482       H  0.28609549  0.29631036  0.90452619     0.11000
S1483       S  0.29000025  0.23558436  0.54754960    -0.28000
H1484       H  0.23790385  0.24730226  0.53306175     0.08200
H1485       H  0.13897099  0.31661497  0.54564747     0.26600
H1486       H  0.25409175  0.31335989  0.86026047     0.21400
H1487       H  0.30909801  0.22766723  0.51432880     0.26700
H1488       H  0.22895297  0.22888322  0.93053069     0.15600
C1489       C  0.53693650  0.31204801  0.97085094    -0.11700
C1490       C  0.52521780  0.28793717  0.48753854     0.14800
C1491       C  0.54104854  0.26795839  0.50405524     0.01700
C1492       C  0.56742739  0.27041503  0.49988519    -0.16100
C1493       C  0.57877055  0.29405281  0.98430237    -0.10900
C1494       C  0.56336337  0.31467523  0.96973542     0.08400
C1495       C  0.49729550  0.28518841  0.48523082     0.09500
S1496       S  0.52875255  0.23894295  0.53059259    -0.25200
H1497       H  0.57955607  0.25490948  0.51193843     0.19700
S1498       S  0.57624597  0.34476741  0.94981436    -0.30900
H1499       H  0.52511016  0.32778326  0.95885613     0.10100
C1500       C  0.48100864  0.29952462  0.51584040     0.03300
C1501       C  0.45464846  0.29628844  0.51154657    -0.13200
C1502       C  0.44426623  0.27914695  0.47699846    -0.08900
C1503       C  0.46140585  0.26612963  0.94389395     0.06700
C1504       C  0.48758293  0.26971878  0.94846984    -0.14000
S1505       S  0.49378722  0.32140745  0.56110679    -0.30900
H1506       H  0.44200156  0.30736137  0.53486054     0.11000
S1507       S  0.45072328  0.24233314  0.90058147    -0.28000
H1508       H  0.50036088  0.25868201  0.92537150     0.08200
H1509       H  0.59831089  0.34375059  0.97922501     0.26600
H1510       H  0.47033592  0.32946722  0.58072303     0.21400
H1511       H  0.43086589  0.23329722  0.93088609     0.26700
H1512       H  0.50656010  0.24974077  0.55070282     0.15600
C1513       C  0.37286198  0.39480434  0.93247979    -0.11700
C1514       C  0.35924841  0.40652879  0.46801748     0.14800
C1515       C  0.34580708  0.39168610  0.50295312     0.01700
C1516       C  0.34847877  0.36530015  0.50245806    -0.16100
C1517       C  0.36395644  0.35316364  0.46722475    -0.10900
C1518       C  0.37611855  0.36837317  0.93161884     0.08400
C1519       C  0.35927846  0.43452743  0.47100981     0.09500
S1520       S  0.32526633  0.40525513  0.54966554    -0.25200
H1521       H  0.33803235  0.35411251  0.52943626     0.19700
S1522       S  0.39859716  0.35568345  0.88747039    -0.30900
H1523       H  0.38332407  0.40652629  0.90644195     0.10100
C1524       C  0.37331200  0.44715028  0.50808212     0.03300
C1525       C  0.37092342  0.47352844  0.51326205    -0.13200
C1526       C  0.35364890  0.48748239  0.98335676    -0.08900
C1527       C  0.33913223  0.47487811  0.94647347     0.06700
C1528       C  0.34147429  0.44853029  0.94071599    -0.14000
S1529       S  0.39440857  0.42960924  0.54856114    -0.30900
H1530       H  0.38181671  0.48329345  0.54153104     0.11000
S1531       S  0.31611511  0.49091700  0.90788054    -0.28000
H1532       H  0.33014785  0.43885841  0.91289678     0.08200
H1533       H  0.40870764  0.33735468  0.92010654     0.26600
H1534       H  0.40176854  0.45026362  0.57844158     0.21400
H1535       H  0.30714041  0.50694387  0.94591264     0.26700
H1536       H  0.31795616  0.42676838  0.52215566     0.15600
C1537       C  0.64934592  0.70471125  0.70270024    -0.11700
C1538       C  0.63629233  0.71808427  0.73972430     0.14800
C1539       C  0.62388600  0.70464849  0.77810961     0.01700
C1540       C  0.62524731  0.67814260  0.77924286    -0.16100
C1541       C  0.63870036  0.66459826  0.74275489    -0.10900
C1542       C  0.65116312  0.67821106  0.70432157     0.08400
C1543       C  0.63835206  0.74600045  0.74045212     0.09500
S1544       S  0.60679368  0.72017910  0.82765057    -0.25200
H1545       H  0.61566618  0.66800862  0.80896314     0.19700
S1546       S  0.67151956  0.66334072  0.65893293    -0.30900
H1547       H  0.65932367  0.71510953  0.67382002     0.10100
C1548       C  0.65679500  0.75810235  0.77001031     0.03300
C1549       C  0.65756996  0.78467962  0.77167862    -0.13200
C1550       C  0.64049032  0.79937822  0.74373319    -0.08900
C1551       C  0.62297643  0.78708874  0.71182803     0.06700
C1552       C  0.62186850  0.76053041  0.71108305    -0.14000
S1553       S  0.67960742  0.73961206  0.80482538    -0.30900
H1554       H  0.67136178  0.79408536  0.79526488     0.11000
S1555       S  0.60253287  0.80404883  0.66941226    -0.28000
H1556       H  0.60821599  0.75108069  0.68717854     0.08200
H1557       H  0.68310118  0.64675787  0.69324340     0.26600
H1558       H  0.69207622  0.76022731  0.82744338     0.21400
H1559       H  0.62044958  0.82299403  0.65779167     0.26700
H1560       H  0.60014513  0.74218939  0.80104929     0.15600
C1561       C  0.65280451  0.75753666  0.55009879    -0.11700
C1562       C  0.63458743  0.74488767  0.01747359     0.14800
C1563       C  0.61745653  0.75898335  0.98785946     0.01700
C1564       C  0.61946025  0.78549393  0.98609391    -0.16100
C1565       C  0.63792173  0.79841364  0.01396826    -0.10900
C1566       C  0.65441704  0.78410831  0.54865566     0.08400
C1567       C  0.63566335  0.71682115  0.01535414     0.09500
S1568       S  0.59316017  0.74431103  0.95030437    -0.25200
H1569       H  0.60675511  0.79610592  0.96202139     0.19700
S1570       S  0.67579268  0.79917494  0.59191946    -0.30900
H1571       H  0.66522046  0.74693990  0.57477869     0.10100
C1572       C  0.64877449  0.70445726  0.97671964     0.03300
C1573       C  0.64865726  0.67786180  0.97442158    -0.13200
C1574       C  0.63570444  0.66321474  0.01011304    -0.08900
C1575       C  0.62426625  0.67537854  0.55326964     0.06700
C1576       C  0.62488172  0.70202036  0.55559729    -0.14000
S1577       S  0.66608471  0.72263317  0.93087581    -0.30900
H1578       H  0.65904044  0.66840310  0.94500038     0.11000
S1579       S  0.60627883  0.65899874  0.60053121    -0.28000
H1580       H  0.61529281  0.71170505  0.58581420     0.08200
H1581       H  0.66005286  0.82029193  0.60091605     0.26600
H1582       H  0.67486093  0.70185767  0.90279518     0.21400
H1583       H  0.59510219  0.64160127  0.56738281     0.26700
H1584       H  0.59016952  0.72228005  0.97925233     0.15600
C1585       C  0.64206126  0.12347180  0.79473867    -0.11700
C1586       C  0.65860494  0.13656875  0.76291570     0.14800
C1587       C  0.67440841  0.12276317  0.73017597     0.01700
C1588       C  0.67247855  0.09625721  0.72838143    -0.16100
C1589       C  0.65542569  0.08311682  0.75923768    -0.10900
C1590       C  0.64053747  0.09692693  0.79375198     0.08400
C1591       C  0.65860653  0.16462735  0.76411755     0.09500
S1592       S  0.69716237  0.13781203  0.68943210    -0.25200
H1593       H  0.68424730  0.08580314  0.70236822     0.19700
S1594       S  0.62005649  0.08187605  0.83881549    -0.30900
H1595       H  0.63033923  0.13403346  0.82068311     0.14900
C1596       C  0.64683486  0.17896896  0.72638535     0.03300
C1597       C  0.64766029  0.20556265  0.72852178    -0.13200
C1598       C  0.66026415  0.21820942  0.76741554    -0.08900
C1599       C  0.67262274  0.20356988  0.80457152     0.06700
C1600       C  0.67107768  0.17703752  0.80312191    -0.14000
S1601       S  0.63018626  0.16338009  0.67623312    -0.30900
H1602       H  0.63801753  0.21655130  0.70012633     0.11000
S1603       S  0.69187667  0.21725096  0.85312400    -0.28000
H1604       H  0.68041608  0.16589335  0.83176244     0.08200
H1605       H  0.63586786  0.06070909  0.84673281     0.26600
H1606       H  0.62495372  0.18539976  0.64830525     0.21400
H1607       H  0.70337199  0.23544116  0.82194718     0.26700
H1608       H  0.70189772  0.15911073  0.71949981     0.15600
C1609       C  0.66956993  0.12089444  0.95110869    -0.11700
C1610       C  0.65414658  0.13486735  0.47693098     0.14800
C1611       C  0.63716092  0.12301265  0.51033589     0.01700
C1612       C  0.63762355  0.09659354  0.51554064    -0.16100
C1613       C  0.65352565  0.08212474  0.98914440    -0.10900
C1614       C  0.66984700  0.09436377  0.95476942     0.08400
C1615       C  0.65579876  0.16275894  0.47293415     0.09500
S1616       S  0.61489211  0.14049301  0.54824187    -0.25200
H1617       H  0.62477643  0.08764005  0.54178873     0.19700
S1618       S  0.69066469  0.07734076  0.91320030    -0.30900
H1619       H  0.68235396  0.13029559  0.92534383     0.10100
C1620       C  0.66908014  0.17702873  0.50865956     0.03300
C1621       C  0.66894229  0.20358529  0.50556801    -0.13200
C1622       C  0.65451084  0.21685939  0.97408588    -0.08900
C1623       C  0.64033135  0.20278298  0.93878508     0.06700
C1624       C  0.64104791  0.17620671  0.94004786    -0.14000
S1625       S  0.68628044  0.16134575  0.55807799    -0.30900
H1626       H  0.67950634  0.21455540  0.53267148     0.11000
S1627       S  0.61964129  0.21737555  0.89351290    -0.28000
H1628       H  0.63009747  0.16541627  0.91317466     0.08200
H1629       H  0.67361814  0.05729336  0.90421909     0.26600
H1630       H  0.69193038  0.18337060  0.58555905     0.21400
H1631       H  0.61026058  0.23603137  0.92621803     0.26700
H1632       H  0.61164262  0.16115521  0.51574240     0.15600
C1633       C  0.17793478  0.54492251  0.73472871    -0.11700
C1634       C  0.19225486  0.56301514  0.76071954     0.14800
C1635       C  0.17965437  0.58221307  0.78783080     0.01700
C1636       C  0.15312942  0.58221647  0.79019584    -0.16100
C1637       C  0.13864957  0.56400966  0.76465788    -0.10900
C1638       C  0.15131281  0.54546420  0.73565540     0.08400
C1639       C  0.22027585  0.56174462  0.75828279     0.09500
S1640       S  0.19617235  0.60745834  0.81968427    -0.25200
H1641       H  0.14367869  0.59678238  0.81192829     0.19700
S1642       S  0.13479000  0.52300784  0.69677550    -0.30900
H1643       H  0.18759873  0.53057473  0.71280186     0.10100
C1644       C  0.23478266  0.55301990  0.79882279     0.03300
C1645       C  0.26138346  0.55394174  0.79625715    -0.13200
C1646       C  0.27385581  0.56362493  0.75400821    -0.08900
C1647       C  0.25904143  0.57256464  0.71352339     0.06700
C1648       C  0.23252977  0.57096133  0.71572609    -0.14000
S1649       S  0.21939555  0.54029875  0.85343099    -0.30900
H1650       H  0.27250878  0.54687002  0.82719374     0.11000
S1651       S  0.27241154  0.58800502  0.65965944    -0.28000
H1652       H  0.22127626  0.57805601  0.68491111     0.08200
H1653       H  0.11608626  0.54033941  0.68092244     0.26600
H1654       H  0.24137409  0.53830578  0.88299112     0.21400
H1655       H  0.28984786  0.60260795  0.68717308     0.26700
H1656       H  0.21771101  0.60811734  0.78882870     0.15600
C1657       C  0.17950205  0.57078062  0.56208021    -0.11700
C1658       C  0.19117476  0.55601468  0.02743551     0.14800
C1659       C  0.17581962  0.53876282  0.00064874     0.01700
C1660       C  0.14935667  0.54147651  0.00206827    -0.16100
C1661       C  0.13778944  0.56084509  0.02994638    -0.10900
C1662       C  0.15300651  0.57291127  0.56398140     0.08400
C1663       C  0.21910695  0.55662775  0.02223894     0.09500
S1664       S  0.18842506  0.51353168  0.96235135    -0.25200
H1665       H  0.13770778  0.52876215  0.98001145     0.19700
S1666       S  0.13958676  0.59329599  0.61104804    -0.30900
H1667       H  0.19106351  0.58231255  0.58667039     0.10100
C1668       C  0.23071467  0.57191925  0.98576175     0.03300
C1669       C  0.25727863  0.57243544  0.98202217    -0.13200
C1670       C  0.27255194  0.55808671  0.01440659    -0.08900
C1671       C  0.26105103  0.54334685  0.55389307     0.06700
C1672       C  0.23452976  0.54300827  0.55812810    -0.14000
S1673       S  0.21161746  0.59145316  0.94512965    -0.30900
H1674       H  0.26621506  0.58461335  0.95461043     0.11000
S1675       S  0.27868644  0.52447731  0.59803992    -0.28000
H1676       H  0.22570036  0.53248126  0.58823153     0.08200
H1677       H  0.11777084  0.57840021  0.61913197     0.26600
H1678       H  0.23170617  0.60033371  0.91524134     0.21400
H1679       H  0.29592236  0.51497175  0.56256356     0.26700
H1680       H  0.21352133  0.51356831  0.97985565     0.15600
C1681       C  0.81351167  0.57708389  0.79772647    -0.11700
C1682       C  0.80223430  0.59382407  0.76377960     0.14800
C1683       C  0.81775252  0.60956197  0.73388499     0.01700
C1684       C  0.84422189  0.60765824  0.73786942    -0.16100
C1685       C  0.85551023  0.59061917  0.77148799    -0.10900
C1686       C  0.83987779  0.57561762  0.80257662     0.08400
C1687       C  0.77424639  0.59407481  0.76062533     0.09500
S1688       S  0.80510548  0.63186243  0.68918120    -0.25200
H1689       H  0.85610844  0.61923544  0.71390502     0.19700
S1690       S  0.85230463  0.55490682  0.85023103    -0.30900
H1691       H  0.80160907  0.56502348  0.82063661     0.10100
C1692       C  0.76135453  0.58261377  0.72071393     0.03300
C1693       C  0.73473173  0.58235743  0.72050194    -0.13200
C1694       C  0.72065340  0.59339406  0.75940511    -0.08900
C1695       C  0.73383049  0.60545760  0.79882985     0.06700
C1696       C  0.76040414  0.60522733  0.79937973    -0.14000
S1697       S  0.77878286  0.56730822  0.67121479    -0.30900
H1698       H  0.72487232  0.57291294  0.69047820     0.11000
S1699       S  0.71818532  0.62235017  0.84847886    -0.28000
H1700       H  0.77042787  0.61414272  0.82989464     0.08200
H1701       H  0.87278777  0.57081225  0.86299860     0.26600
H1702       H  0.75772336  0.56210302  0.64065065     0.21400
H1703       H  0.70027798  0.63413050  0.81710299     0.26700
H1704       H  0.78155078  0.63582125  0.71258097     0.15600
C1705       C  0.81291186  0.57476724  0.54676349    -0.11700
C1706       C  0.80125966  0.59178194  0.01299297     0.14800
C1707       C  0.81673179  0.60811070  0.98422848     0.01700
C1708       C  0.84321324  0.60665327  0.98885258    -0.16100
C1709       C  0.85460596  0.58956083  0.02224595    -0.10900
C1710       C  0.83931765  0.57323797  0.55176567     0.08400
C1711       C  0.77324110  0.59170304  0.00888805     0.09500
S1712       S  0.80397701  0.63075908  0.94033300    -0.25200
H1713       H  0.85502705  0.61863464  0.96557753     0.19700
S1714       S  0.85163442  0.55061335  0.59606131    -0.30900
H1715       H  0.80099602  0.56172860  0.56747387     0.10100
C1716       C  0.76077904  0.58112066  0.96747187     0.03300
C1717       C  0.73414616  0.58148436  0.96538281    -0.13200
C1718       C  0.71965385  0.59191709  0.00426972    -0.08900
C1719       C  0.73251231  0.60127996  0.54961208     0.06700
C1720       C  0.75908735  0.60134060  0.55146089    -0.14000
S1721       S  0.77873818  0.56601824  0.91854821    -0.30900
H1722       H  0.72454364  0.57285337  0.93403021     0.11000
S1723       S  0.71601043  0.61426926  0.60255212    -0.28000
H1724       H  0.76859554  0.60836881  0.58447882     0.08200
H1725       H  0.87170708  0.56622689  0.61227296     0.26600
H1726       H  0.75816506  0.56185779  0.88614512     0.21400
H1727       H  0.69784473  0.62739975  0.57393000     0.26700
H1728       H  0.78056465  0.63458833  0.96436893     0.15600
C1729       C  0.35605248  0.10262858  0.79887000    -0.11700
C1730       C  0.37202609  0.11502488  0.76488656     0.14800
C1731       C  0.38729369  0.10051561  0.73234539     0.01700
C1732       C  0.38516965  0.07403425  0.73258065    -0.16100
C1733       C  0.36852936  0.06161636  0.76533860    -0.10900
C1734       C  0.35437568  0.07610048  0.79991141     0.08400
C1735       C  0.37187067  0.14307335  0.76363581     0.09500
S1736       S  0.40962983  0.11454768  0.68941023    -0.25200
H1737       H  0.39642488  0.06301313  0.70655056     0.19700
S1738       S  0.33458916  0.06195838  0.84724747    -0.30900
H1739       H  0.34480087  0.11374343  0.82476745     0.10100
C1740       C  0.36002912  0.15652589  0.72468339     0.03300
C1741       C  0.36007124  0.18316286  0.72534786    -0.13200
C1742       C  0.37184375  0.19662101  0.76407598    -0.08900
C1743       C  0.38462332  0.18295549  0.80196573     0.06700
C1744       C  0.38391819  0.15639635  0.80198434    -0.14000
S1745       S  0.34401548  0.13979545  0.67517171    -0.30900
H1746       H  0.35030741  0.19355181  0.69625493     0.11000
S1747       S  0.40321277  0.19801480  0.84989500    -0.28000
H1748       H  0.39340171  0.14597323  0.83144627     0.08200
H1749       H  0.35008265  0.04051762  0.85480095     0.26600
H1750       H  0.33999567  0.16108173  0.64441895     0.21400
H1751       H  0.41179863  0.21822629  0.82010194     0.26700
H1752       H  0.41430097  0.13681332  0.71671644     0.15600
C1753       C  0.38417173  0.10006027  0.95669435    -0.11700
C1754       C  0.36406088  0.11545310  0.48515753     0.14800
C1755       C  0.34546057  0.10337019  0.51472462     0.01700
C1756       C  0.34607781  0.07694030  0.52037804    -0.16100
C1757       C  0.36466105  0.06210910  0.49659092    -0.10900
C1758       C  0.38404422  0.07356040  0.96187142     0.08400
C1759       C  0.36555817  0.14339726  0.48117823     0.09500
S1760       S  0.32089355  0.12057887  0.54732059    -0.25200
H1761       H  0.33195613  0.06788072  0.54379397     0.19700
S1762       S  0.40568045  0.05577117  0.92325311    -0.30900
H1763       H  0.39777113  0.10894249  0.93186506     0.10100
C1764       C  0.37826516  0.15780358  0.51751438     0.03300
C1765       C  0.37848752  0.18435324  0.51377233    -0.13200
C1766       C  0.36590593  0.19687278  0.47474461    -0.08900
C1767       C  0.35495920  0.18185784  0.93590408     0.06700
C1768       C  0.35602715  0.15530127  0.93865847    -0.14000
S1769       S  0.39435520  0.14229721  0.56846577    -0.30900
H1770       H  0.38866200  0.19543075  0.54128243     0.11000
S1771       S  0.33491688  0.19546942  0.88841091    -0.28000
H1772       H  0.34589669  0.14399024  0.91137202     0.08200
H1773       H  0.38829414  0.03624483  0.91247347     0.26600
H1774       H  0.39967013  0.16443919  0.59584795     0.21400
H1775       H  0.32484274  0.21463244  0.91911804     0.26700
H1776       H  0.31899780  0.14098862  0.51385329     0.15600
C1777       C  0.33656005  0.73889762  0.71731363    -0.11700
C1778       C  0.35290220  0.72471214  0.74768172     0.14800
C1779       C  0.37039070  0.73734621  0.77882309     0.01700
C1780       C  0.37017369  0.76385463  0.78099115    -0.16100
C1781       C  0.35339552  0.77814348  0.75161446    -0.10900
C1782       C  0.33692674  0.76547414  0.71827315     0.08400
C1783       C  0.35109848  0.69678271  0.74670141     0.09500
S1784       S  0.39342104  0.72083745  0.81667402    -0.25200
H1785       H  0.38323127  0.77343220  0.80591567     0.19700
S1786       S  0.31695395  0.78199816  0.67437956    -0.30900
H1787       H  0.32361455  0.72917052  0.69238488     0.10100
C1788       C  0.33982341  0.68328649  0.78616385     0.03300
C1789       C  0.33984787  0.65669786  0.78522679    -0.13200
C1790       C  0.35133532  0.64329000  0.74600562    -0.08900
C1791       C  0.36308922  0.65703293  0.70693636     0.06700
C1792       C  0.36215956  0.68358583  0.70702662    -0.14000
S1793       S  0.32519444  0.69993013  0.83745517    -0.30900
H1794       H  0.33079789  0.64630329  0.81519011     0.11000
S1795       S  0.38142472  0.64213993  0.65834407    -0.28000
H1796       H  0.37125868  0.69410249  0.67721526     0.08200
H1797       H  0.33457634  0.80144787  0.66434076     0.26600
H1798       H  0.32193783  0.67858264  0.86839423     0.21400
H1799       H  0.39320568  0.62440195  0.69008678     0.26700
H1800       H  0.39580854  0.69922841  0.78639321     0.15600
C1801       C  0.33629408  0.68214608  0.56300079    -0.11700
C1802       C  0.34769045  0.69636947  0.02793061     0.14800
C1803       C  0.36011428  0.68377583  0.98853475     0.01700
C1804       C  0.35944373  0.65728445  0.98600060    -0.16100
C1805       C  0.34687888  0.64273478  0.02226098    -0.10900
C1806       C  0.33507696  0.65553233  0.56030077     0.08400
C1807       C  0.34638031  0.72444416  0.02965985     0.09500
S1808       S  0.37679671  0.70037767  0.93972552    -0.25200
H1809       H  0.36916912  0.64790567  0.95554061     0.19700
S1810       S  0.31738608  0.63923693  0.60808380    -0.30900
H1811       H  0.32752365  0.69187877  0.59413049     0.10100
C1812       C  0.32909910  0.73801399  0.99966054     0.03300
C1813       C  0.33073188  0.76461790  0.99710870    -0.13200
C1814       C  0.34928057  0.77792966  0.02413685    -0.08900
C1815       C  0.36669970  0.76397053  0.55359364     0.06700
C1816       C  0.36510214  0.73741810  0.55496915    -0.14000
S1817       S  0.30521538  0.72132818  0.96420975    -0.30900
H1818       H  0.31797524  0.77505568  0.97290826     0.11000
S1819       S  0.38996982  0.77880573  0.59328154    -0.28000
H1820       H  0.37845301  0.72670710  0.57750916     0.08200
H1821       H  0.30651161  0.62123136  0.57582032     0.26600
H1822       H  0.29395263  0.74293824  0.94261399     0.21400
H1823       H  0.37444578  0.79956262  0.60617264     0.26700
H1824       H  0.38434869  0.72141517  0.96819529     0.15600
loop_ 
_geom_bond_atom_site_label_1 
_geom_bond_atom_site_label_2 
_geom_bond_distance 
_geom_bond_site_symmetry_2 
_ccdc_geom_bond_type 
O1           C11   1.276       .  A
O1         Cu921   1.993       .  S
O2           C12   1.278       .  A
O2           Cu9   2.009       .  S
O3          C925   1.278       .  A
O3           Cu9   2.014       .  S
O4          C926   1.279       .  A
O4         Cu921   2.015       .  S
O5          C926   1.278       .  A
O5          Cu10   2.011       .  S
O6          C925   1.278       .  A
O6         Cu922   2.008       .  S
O7           C12   1.278       .  A
O7         Cu922   2.010       .  S
O8           C11   1.277       .  A
O8          Cu10   1.999       .  S
Cu9         O913   1.996       .  S
Cu9         O916   2.014       .  S
Cu9        Cu922   2.376       .  S
Cu10        O918   2.009       .  S
Cu10        O919   2.009   1_554  S
Cu10       Cu921   2.376       .  S
C11          C27   1.457       .  S
C12          C28   1.468       .  S
C13         O915   1.278       .  A
C13         O918   1.278       .  A
C13          C42   1.469       .  S
C14         O916   1.279       .  A
C14         O917   1.278       .  A
C14         C902   1.480       .  S
O15          C25   1.278       .  A
O15         Cu23   2.013       .  S
O16          C26   1.278       .  A
O16         Cu23   2.012       .  S
O17          C27   1.276       .  A
O17         Cu23   1.995       .  S
O18          C28   1.278       .  A
O18         Cu23   2.011       .  S
O19          C28   1.277       .  A
O19         Cu24   2.008       .  S
O20          C27   1.277       .  A
O20         Cu24   1.997       .  S
O21          C26   1.277       .  A
O21         Cu24   2.003       .  S
O22          C25   1.277       .  A
O22         Cu24   2.001       .  S
Cu23        Cu24   2.377       .  S
C25         C869   1.476       .  S
C26          C54   1.466       .  S
O29          C39   1.278       .  A
O29        Cu949   2.011       .  S
O30          C40   1.276       .  A
O30         Cu37   1.995       .  S
O31         C953   1.279       .  A
O31         Cu37   2.015   1_545  S
O32          C42   1.278       .  A
O32        Cu949   2.015       .  S
O33          C42   1.277       .  A
O33         Cu38   2.007       .  S
O34         C953   1.277       .  A
O34        Cu950   2.004   1_545  S
O35          C40   1.277       .  A
O35        Cu950   2.002       .  S
O36          C39   1.277       .  A
O36         Cu38   2.007       .  S
Cu37        O941   2.006       .  S
Cu37        O944   2.015       .  S
Cu37       Cu950   2.376       .  S
Cu38        O946   2.007   1_565  S
Cu38        O947   1.996   1_554  S
Cu38       Cu949   2.376       .  S
C39          C55   1.467       .  S
C40          C56   1.459       .  S
C41         O943   1.279       .  A
C41         O946   1.278       .  A
C41         C845   1.480   1_554  S
O43          C53   1.277       .  A
O43         Cu51   2.003   1_545  S
O44          C54   1.277       .  A
O44         Cu51   2.005       .  S
O45          C55   1.277       .  A
O45         Cu51   2.007       .  S
O46          C56   1.277       .  A
O46         Cu51   2.001       .  S
O47          C56   1.276       .  A
O47         Cu52   1.997       .  S
O48          C55   1.278       .  A
O48         Cu52   2.011       .  S
O49          C54   1.278       .  A
O49         Cu52   2.011       .  S
O50          C53   1.278       .  A
O50         Cu52   2.009   1_545  S
Cu51        Cu52   2.377       .  S
C53         C821   1.473       .  S
O57          C67   1.278       .  A
O57         Cu65   2.013       .  S
O58          C68   1.278       .  A
O58         Cu65   2.013       .  S
O59          C69   1.277       .  A
O59         Cu65   2.001       .  S
O60          C70   1.278       .  A
O60        Cu977   2.008       .  S
O61          C70   1.276       .  A
O61        Cu978   2.002       .  S
O62          C69   1.277       .  A
O62         Cu66   2.002       .  S
O63          C68   1.277       .  A
O63         Cu66   2.005       .  S
O64          C67   1.277       .  A
O64         Cu66   2.004       .  S
Cu65        O972   2.005       .  S
Cu65        Cu66   2.377       .  S
Cu66        O973   2.002       .  S
C67         C797   1.478       .  S
C68          C97   1.467   1_655  S
C69          C82   1.461       .  S
C70          C81   1.464       .  S
O71          C81   1.278       .  A
O71         Cu79   2.009       .  S
O72          C82   1.277       .  A
O72         Cu79   2.003       .  S
O73          C83   1.277       .  A
O73         Cu79   2.004       .  S
O74          C84   1.277       .  A
O74         Cu79   2.008       .  S
O75          C84   1.278       .  A
O75         Cu80   2.009       .  S
O76          C83   1.278       .  A
O76         Cu80   2.009       .  S
O77          C82   1.277       .  A
O77         Cu80   2.001       .  S
O78          C81   1.276       .  A
O78         Cu80   2.000       .  S
Cu79        Cu80   2.377       .  S
C83         C773   1.474       .  S
C84         C110   1.467   1_655  S
O85          C95   1.278       .  A
O85         Cu93   2.010       .  S
O86          C96   1.277       .  A
O86       Cu1005   2.000       .  S
O87        C1009   1.277       .  A
O87       Cu1005   2.005       .  S
O88          C98   1.277       .  A
O88         Cu93   2.003       .  S
O89          C98   1.279       .  A
O89         Cu94   2.012       .  S
O90          C97   1.278       .  A
O90         Cu94   2.013       .  S
O91          C96   1.276       .  A
O91       Cu1006   1.997       .  S
O92          C95   1.277       .  A
O92         Cu94   2.005       .  S
Cu93        O998   2.007       .  S
Cu93        O999   2.004       .  S
Cu93        Cu94   2.377       .  S
Cu94       O1003   1.994       .  S
C95         C111   1.466       .  S
C96         C112   1.459       .  S
C97         O999   1.277       .  A
C98         C749   1.474       .  S
O99         C109   1.277       .  A
O99        Cu107   2.000       .  S
O100        C110   1.276       .  A
O100       Cu107   2.002       .  S
O101        C111   1.278       .  A
O101       Cu107   2.007       .  S
O102        C112   1.277       .  A
O102       Cu107   2.002       .  S
O103        C112   1.276       .  A
O103       Cu108   1.996       .  S
O104        C111   1.277       .  A
O104       Cu108   2.008       .  S
O105        C110   1.279       .  A
O105       Cu108   2.015       .  S
O106        C109   1.279       .  A
O106       Cu108   2.016       .  S
Cu107      Cu108   2.376       .  S
C109        C725   1.479       .  S
O113        C123   1.276       .  A
O113       Cu121   1.997       .  S
O114        C124   1.277       .  A
O114      Cu1033   2.008       .  S
O115        C125   1.278       .  A
O115       Cu121   2.013   1_565  S
O116        C126   1.278       .  A
O116       Cu121   2.010       .  S
O117        C126   1.277       .  A
O117       Cu122   1.999       .  S
O118        C125   1.277       .  A
O118       Cu122   2.003   1_565  S
O119        C124   1.278       .  A
O119      Cu1034   2.009       .  S
O120        C123   1.277       .  A
O120       Cu122   1.998       .  S
Cu121      O1026   2.010       .  S
Cu121      Cu122   2.377       .  S
Cu122      O1031   2.007       .  S
C123        C138   1.458       .  S
C124        C137   1.467       .  S
C125        C153   1.466       .  S
C126        C701   1.474       .  S
O127        C137   1.278       .  A
O127       Cu135   2.010       .  S
O128        C138   1.277       .  A
O128       Cu135   2.003       .  S
O129        C139   1.277       .  A
O129       Cu135   2.007   1_565  S
O130        C140   1.278       .  A
O130       Cu135   2.009       .  S
O131        C140   1.278       .  A
O131       Cu136   2.012       .  S
O132        C139   1.278       .  A
O132       Cu136   2.008   1_565  S
O133        C138   1.276       .  A
O133       Cu136   1.992       .  S
O134        C137   1.277       .  A
O134       Cu136   2.008       .  S
Cu135      Cu136   2.377       .  S
C139        C168   1.466       .  S
C140        C677   1.476       .  S
O141        C151   1.277       .  A
O141       Cu149   2.005       .  S
O142        C152   1.277       .  A
O142      Cu1061   2.002       .  S
O143        C153   1.277       .  A
O143       Cu149   2.005       .  S
O144        C154   1.278       .  A
O144       Cu149   2.009       .  S
O145        C154   1.279       .  A
O145       Cu150   2.016       .  S
O146        C153   1.278       .  A
O146       Cu150   2.012       .  S
O147        C152   1.276       .  A
O147      Cu1062   1.995       .  S
O148        C151   1.278       .  A
O148       Cu150   2.013       .  S
Cu149      O1054   1.997       .  S
Cu149      Cu150   2.376       .  S
Cu150      O1059   1.997       .  S
C151        C166   1.467       .  S
C152        C165   1.458       .  S
C154        C653   1.479       .  S
O155        C165   1.277       .  A
O155       Cu163   1.999       .  S
O156        C166   1.277       .  A
O156       Cu163   2.009       .  S
O157        C167   1.278       .  A
O157       Cu163   2.004       .  S
O158        C168   1.278       .  A
O158       Cu163   2.009       .  S
O159        C168   1.277       .  A
O159       Cu164   2.007       .  S
O160        C167   1.277       .  A
O160       Cu164   2.003       .  S
O161        C166   1.278       .  A
O161       Cu164   2.009       .  S
O162        C165   1.276       .  A
O162       Cu164   1.997       .  S
Cu163      Cu164   2.377       .  S
C167        C638   1.475       .  S
O169        C179   1.278   1_554  A
O169       Cu177   2.004       .  S
O170        C180   1.278   1_554  A
O170       Cu177   2.007       .  S
O171        C181   1.276   1_554  A
O171       Cu177   1.992       .  S
O172        C182   1.275   1_554  A
O172       Cu177   1.991       .  S
O173       C1094   1.279       .  A
O173       Cu178   2.013       .  S
O174       C1093   1.279       .  A
O174       Cu178   2.015       .  S
O175       C1092   1.277       .  A
O175       Cu178   2.004       .  S
O176       C1091   1.276       .  A
O176       Cu178   2.003       .  S
Cu177     Cu1090   2.374   1_554  S
Cu178     Cu1089   2.374       .  S
C179       O1088   1.277       .  A
C179        C605   1.477       .  S
C180       O1087   1.277       .  A
C180        C854   1.480       .  S
C181       O1086   1.279       .  A
C181        C590   1.474       .  S
C182       O1085   1.279       .  A
C182        C566   1.475       .  S
O183        C193   1.277       .  A
O183       Cu191   2.005       .  S
O184        C194   1.277       .  A
O184       Cu191   2.001       .  S
O185        C195   1.279       .  A
O185       Cu191   2.014       .  S
O186        C196   1.278       .  A
O186       Cu191   2.011       .  S
O187        C196   1.277       .  A
O187       Cu192   2.006       .  S
O188        C195   1.278       .  A
O188       Cu192   2.008       .  S
O189        C194   1.278       .  A
O189       Cu192   2.003       .  S
O190        C193   1.278       .  A
O190       Cu192   2.003       .  S
Cu191      Cu192   2.373       .  S
C193        C830   1.477       .  S
C194        C542   1.475       .  S
C195        C494   1.482       .  S
C196        C509   1.476       .  S
O197        C207   1.275       .  A
O197       Cu205   1.996       .  S
O198        C208   1.277       .  A
O198       Cu205   1.998       .  S
O199        C209   1.280       .  A
O199       Cu205   2.019       .  S
O200        C210   1.280       .  A
O200       Cu205   2.016       .  S
O201       C1122   1.276       .  A
O201       Cu206   2.000       .  S
O202       C1121   1.277   1_554  A
O202       Cu206   2.002       .  S
O203       C1120   1.279       .  A
O203       Cu206   2.020       .  S
O204       C1119   1.280   1_554  A
O204       Cu206   2.014       .  S
Cu205     Cu1118   2.371       .  S
Cu206     Cu1117   2.372   1_554  S
C207       O1116   1.280       .  A
C207        C614   1.478       .  S
C208       O1115   1.279       .  A
C208        C893   1.481       .  S
C209       O1114   1.276       .  A
C209        C470   1.482       .  S
C210       O1113   1.276       .  A
C210        C758   1.483       .  S
O211        C221   1.276       .  A
O211       Cu219   2.000       .  S
O212        C222   1.277       .  A
O212       Cu219   1.997       .  S
O213        C223   1.279       .  A
O213       Cu219   2.008       .  S
O214        C224   1.278       .  A
O214       Cu219   2.011       .  S
O215        C224   1.277       .  A
O215       Cu220   1.996       .  S
O216        C223   1.276       .  A
O216       Cu220   1.997       .  S
O217        C222   1.278       .  A
O217       Cu220   2.009       .  S
O218        C221   1.279       .  A
O218       Cu220   2.012       .  S
Cu219      Cu220   2.372       .  S
C221        C734   1.483       .  S
C222        C437   1.477       .  S
C223        C533   1.477       .  S
C224        C878   1.478       .  S
O225       C1147   1.278   1_554  A
O225       Cu233   2.001       .  S
O226       C1148   1.278   1_554  A
O226       Cu233   2.007       .  S
O227       C1149   1.275   1_554  A
O227       Cu233   1.996       .  S
O228       C1150   1.276   1_554  A
O228       Cu233   1.995       .  S
O229        C238   1.279       .  A
O229       Cu234   2.012       .  S
O230        C237   1.278       .  A
O230       Cu234   2.014       .  S
O231        C236   1.276       .  A
O231       Cu234   2.001       .  S
O232        C235   1.277       .  A
O232       Cu234   2.005       .  S
Cu233     Cu1146   2.375   1_554  S
Cu234     Cu1145   2.374       .  S
C235       O1137   1.278       .  A
C235        C710   1.479       .  S
C236       O1138   1.278       .  A
C236        C422   1.475       .  S
C237       O1139   1.275       .  A
C237        C581   1.465       .  S
C238       O1140   1.276       .  A
C238        C389   1.478       .  S
O239        C249   1.277       .  A
O239       Cu247   2.001       .  S
O240        C250   1.276       .  A
O240       Cu247   2.000       .  S
O241        C251   1.278       .  A
O241       Cu247   2.003       .  S
O242        C252   1.279       .  A
O242       Cu247   2.011       .  S
O243        C252   1.276       .  A
O243       Cu248   2.001       .  S
O244        C251   1.276       .  A
O244       Cu248   2.003       .  S
O245        C250   1.279       .  A
O245       Cu248   2.017       .  S
O246        C249   1.280       .  A
O246       Cu248   2.022       .  S
Cu247      Cu248   2.372       .  S
C249        C341   1.486       .  S
C250        C518   1.474       .  S
C251        C374   1.473       .  S
C252        C686   1.484       .  S
O253        C263   1.278       .  A
O253       Cu261   2.001       .  S
O254        C264   1.276       .  A
O254       Cu261   2.002       .  S
O255        C265   1.279       .  A
O255       Cu261   2.015       .  S
O256        C266   1.279       .  A
O256       Cu261   2.014       .  S
O257       C1178   1.276       .  A
O257       Cu262   2.000       .  S
O258       C1177   1.277   1_554  A
O258       Cu262   2.003       .  S
O259       C1176   1.278   1_554  A
O259       Cu262   2.007       .  S
O260       C1175   1.278       .  A
O260       Cu262   2.012       .  S
Cu261     Cu1174   2.370       .  S
Cu262     Cu1173   2.372   1_554  S
C263       O1172   1.278       .  A
C263        C662   1.485       .  S
C264       O1171   1.279       .  A
C264        C413   1.478       .  S
C265       O1170   1.278       .  A
C265        C461   1.483       .  S
C266       O1169   1.277       .  A
C266        C806   1.484       .  S
O267        C277   1.277       .  A
O267       Cu275   2.002       .  S
O268        C278   1.278       .  A
O268       Cu275   2.005       .  S
O269        C279   1.278       .  A
O269       Cu275   2.003       .  S
O270        C280   1.276       .  A
O270       Cu275   2.001       .  S
O271        C280   1.278       .  A
O271       Cu276   2.002       .  S
O272        C279   1.276       .  A
O272       Cu276   2.000       .  S
O273        C278   1.277       .  A
O273       Cu276   2.002       .  S
O274        C277   1.278       .  A
O274       Cu276   2.004       .  S
Cu275      Cu276   2.373       .  S
C277        C446   1.476       .  S
C278        C782   1.482       .  S
C279        C365   1.473       .  S
C280        C629   1.478       .  S
O281        C291   1.277       .  A
O281      Cu1201   2.005       .  S
O282        C292   1.276       .  A
O282       Cu289   1.998   1_554  S
O283        C293   1.278       .  A
O283       Cu289   2.009       .  S
O284        C294   1.279       .  A
O284       Cu289   2.008       .  S
O285       C1206   1.276       .  A
O285       Cu290   2.003       .  S
O286        C293   1.277       .  A
O286      Cu1202   2.006       .  S
O287        C292   1.278       .  A
O287      Cu1202   2.006   1_554  S
O288        C291   1.277       .  A
O288       Cu290   2.003       .  S
Cu289      O1193   2.003       .  S
Cu289     Cu1202   2.374       .  S
Cu290      O1198   2.005       .  S
Cu290      O1199   2.002       .  S
Cu290     Cu1201   2.374       .  S
C291        C305   1.463       .  S
C292        C306   1.462       .  S
C293        C320   1.466   1_455  S
C294       O1197   1.277       .  A
C294        C557   1.488       .  S
O295        C305   1.277       .  A
O295       Cu303   2.005       .  S
O296        C306   1.276       .  A
O296       Cu303   2.001       .  S
O297        C307   1.278       .  A
O297       Cu303   2.009       .  S
O298        C308   1.279       .  A
O298       Cu303   2.010       .  S
O299        C308   1.278       .  A
O299       Cu304   2.017       .  S
O300        C307   1.278       .  A
O300       Cu304   2.018       .  S
O301        C306   1.277       .  A
O301       Cu304   2.003       .  S
O302        C305   1.277       .  A
O302       Cu304   2.003       .  S
Cu303      Cu304   2.374       .  S
C307        C335   1.471   1_455  S
C308        C485   1.491       .  S
O309        C319   1.278       .  A
O309       Cu317   2.007       .  S
O310       C1232   1.278       .  A
O310       Cu317   2.008       .  S
O311        C321   1.276       .  A
O311       Cu317   1.997       .  S
O312        C322   1.277       .  A
O312      Cu1229   2.002   1_554  S
O313        C322   1.277       .  A
O313       Cu318   2.004   1_554  S
O314        C321   1.278       .  A
O314      Cu1230   2.006       .  S
O315       C1232   1.277       .  A
O315      Cu1230   2.008       .  S
O316       C1231   1.277       .  A
O316       Cu318   2.003       .  S
Cu317      O1224   2.002       .  S
Cu317     Cu1230   2.377       .  S
Cu318      O1226   2.005       .  S
Cu318      O1227   2.005       .  S
Cu318     Cu1229   2.377       .  S
C319       O1228   1.277       .  A
C319        C398   1.475       .  S
C320       O1222   1.278       .  A
C320       O1227   1.277       .  A
C321        C333   1.461       .  S
C322        C334   1.462       .  S
O323        C333   1.276       .  A
O323       Cu331   1.998       .  S
O324        C334   1.276       .  A
O324       Cu331   2.001       .  S
O325        C335   1.279       .  A
O325       Cu331   2.023       .  S
O326        C336   1.280       .  A
O326       Cu331   2.021       .  S
O327        C336   1.277       .  A
O327       Cu332   2.005       .  S
O328        C335   1.277       .  A
O328       Cu332   2.005       .  S
O329        C334   1.277       .  A
O329       Cu332   2.005       .  S
O330        C333   1.278       .  A
O330       Cu332   2.005       .  S
Cu331      Cu332   2.376       .  S
C336        C350   1.483       .  S
C337        C338   1.401       .  A
C337        C342   1.398       .  A
C337        H347   1.083       .  S
C338        C343   1.479       .  S
C338        C339   1.412       .  A
C339        C340   1.401       .  A
C339        S344   1.808       .  S
C340        C341   1.408       .  A
C340        H345   1.085       .  S
C341        C342   1.415       .  A
C342        S346   1.801       .  S
C343        C348   1.407       .  A
C343        C352   1.400       .  A
S344        H360   1.403       .  S
S346        H357   1.407       .  S
C348        C349   1.406       .  A
C348        S353   1.806       .  S
C349        C350   1.408       .  A
C349        H354   1.083       .  S
C350        C351   1.415       .  A
C351        C352   1.398       .  A
C351        S355   1.802       .  S
C352        H356   1.082       .  S
S353        H358   1.407       .  S
S355        H359   1.408       .  S
C361        C362   1.401       .  A
C361        C366   1.399       .  A
C361        H371   1.083       .  S
C362        C367   1.474       .  S
C362        C363   1.411       .  A
C363        C364   1.396       .  A
C363        S368   1.805       .  S
C364        C365   1.403       .  A
C364        H369   1.083       .  S
C365        C366   1.414       .  A
C366        S370   1.804       .  S
C367        C372   1.408       .  A
C367        C376   1.400       .  A
S368        H384   1.405       .  S
S370        H381   1.407       .  S
C372        C373   1.399       .  A
C372        S377   1.806       .  S
C373        C374   1.403       .  A
C373        H378   1.083       .  S
C374        C375   1.416       .  A
C375        C376   1.398       .  A
C375        S379   1.803       .  S
C376        H380   1.084       .  S
S377        H382   1.407       .  S
S379        H383   1.402       .  S
C385        C390   1.396       .  A
C385       C1298   1.400   1_554  A
C385        H395   1.084       .  S
C386        C391   1.474       .  S
C386        C387   1.413       .  A
C386       C1297   1.400       .  A
C387        C388   1.400       .  A
C387        S392   1.806       .  S
C388        C389   1.405       .  A
C388        H393   1.083       .  S
C389       C1302   1.416       .  A
C390       C1301   1.415   1_554  A
C390        S394   1.804       .  S
C391        C396   1.407       .  A
C391       C1312   1.401       .  A
S392        H408   1.401       .  S
S394        H405   1.407       .  S
C396        C397   1.401       .  A
C396        S401   1.805       .  S
C397        C398   1.405       .  A
C397        H402   1.083       .  S
C398       C1311   1.414       .  A
C399        C400   1.398   1_554  A
C399       C1310   1.415   1_554  A
C399        S403   1.803       .  S
C400       C1303   1.400       .  A
C400        H404   1.084   1_556  S
S401        H406   1.407       .  S
S403        H407   1.407       .  S
C409        C414   1.399       .  A
C409       C1322   1.400       .  A
C409        H419   1.085       .  S
C410        C415   1.475       .  S
C410        C411   1.411   1_556  A
C410       C1321   1.400       .  A
C411        C412   1.397       .  A
C411        S416   1.804       .  S
C412       C1325   1.403   1_554  A
C412        H417   1.085       .  S
C413        C414   1.417       .  A
C413       C1324   1.403       .  A
C414        S418   1.802       .  S
C415        C420   1.409   1_556  A
C415       C1336   1.400       .  A
S416        H432   1.405       .  S
S418        H429   1.407       .  S
C420        C421   1.400       .  A
C420        S425   1.806       .  S
C421       C1334   1.403   1_554  A
C421        H426   1.082       .  S
C422        C423   1.415       .  A
C422       C1333   1.403       .  A
C423        C424   1.399       .  A
C423        S427   1.801       .  S
C424       C1327   1.400       .  A
C424        H428   1.083       .  S
S425        H430   1.407       .  S
S427        H431   1.407       .  S
C433        C434   1.401       .  A
C433        C438   1.397       .  A
C433        H443   1.085       .  S
C434        C439   1.476       .  S
C434        C435   1.412       .  A
C435        C436   1.398       .  A
C435        S440   1.806       .  S
C436        C437   1.406       .  A
C436        H441   1.085       .  S
C437        C438   1.415       .  A
C438        S442   1.803       .  S
C439        C444   1.409       .  A
C439        C448   1.399       .  A
S440        H456   1.405       .  S
S442        H453   1.408       .  S
C444        C445   1.402       .  A
C444        S449   1.805       .  S
C445        C446   1.405       .  A
C445        H450   1.083       .  S
C446        C447   1.415       .  A
C447        C448   1.395       .  A
C447        S451   1.802       .  S
C448        H452   1.082       .  S
S449        H454   1.407       .  S
S451        H455   1.407       .  S
C457        C462   1.399       .  A
C457       C1370   1.402   1_554  A
C457        H467   1.084       .  S
C458        C463   1.483       .  S
C458        C459   1.414       .  A
C458       C1369   1.402       .  A
C459        C460   1.401       .  A
C459        S464   1.805       .  S
C460        C461   1.406       .  A
C460        H465   1.083       .  S
C461       C1374   1.416       .  A
C462       C1373   1.416   1_554  A
C462        S466   1.804       .  S
C463        C468   1.411       .  A
C463       C1384   1.401       .  A
S464        H480   1.405       .  S
S466        H477   1.408       .  S
C468        C469   1.405       .  A
C468        S473   1.804       .  S
C469        C470   1.406       .  A
C469        H474   1.083       .  S
C470       C1383   1.417       .  A
C471        C472   1.397       .  A
C471       C1382   1.416   1_554  A
C471        S475   1.803       .  S
C472       C1375   1.400   1_554  A
C472        H476   1.083       .  S
S473        H478   1.407       .  S
S475        H479   1.408       .  S
C481        C482   1.402       .  A
C481        C486   1.401       .  A
C481        H491   1.085       .  S
C482        C487   1.483       .  S
C482        C483   1.414       .  A
C483        C484   1.400       .  A
C483        S488   1.808       .  S
C484        C485   1.407       .  A
C484        H489   1.084       .  S
C485        C486   1.418       .  A
C486        S490   1.802       .  S
C487        C492   1.410       .  A
C487        C496   1.401       .  A
S488        H504   1.400       .  S
S490        H501   1.408       .  S
C492        C493   1.404       .  A
C492        S497   1.805       .  S
C493        C494   1.404       .  A
C493        H498   1.083       .  S
C494        C495   1.417       .  A
C495        C496   1.400       .  A
C495        S499   1.803       .  S
C496        H500   1.084       .  S
S497        H502   1.406       .  S
S499        H503   1.407       .  S
C505        C506   1.402       .  A
C505        C510   1.400       .  A
C505        H515   1.084       .  S
C506        C511   1.479       .  S
C506        C507   1.413       .  A
C507        C508   1.399       .  A
C507        S512   1.802       .  S
C508        C509   1.403       .  A
C508        H513   1.084       .  S
C509        C510   1.415       .  A
C510        S514   1.804       .  S
C511        C516   1.410       .  A
C511        C520   1.400       .  A
S512        H528   1.402       .  S
S514        H525   1.405       .  S
C516        C517   1.404       .  A
C516        S521   1.803       .  S
C517        C518   1.404       .  A
C517        H522   1.082       .  S
C518        C519   1.415       .  A
C519        C520   1.398       .  A
C519        S523   1.805       .  S
C520        H524   1.083       .  S
S521        H526   1.407       .  S
S523        H527   1.402       .  S
C529        C530   1.400       .  A
C529        C534   1.399       .  A
C529        H539   1.083       .  S
C530        C535   1.474       .  S
C530        C531   1.411       .  A
C531        C532   1.396       .  A
C531        S536   1.804       .  S
C532        C533   1.404       .  A
C532        H537   1.084       .  S
C533        C534   1.417       .  A
C534        S538   1.804       .  S
C535        C540   1.408       .  A
C535        C544   1.400       .  A
S536        H552   1.405       .  S
S538        H549   1.408       .  S
C540        C541   1.400       .  A
C540        S545   1.807       .  S
C541        C542   1.405       .  A
C541        H546   1.082       .  S
C542        C543   1.416       .  A
C543        C544   1.398       .  A
C543        S547   1.804       .  S
C544        H548   1.084       .  S
S545        H550   1.407       .  S
S547        H551   1.407       .  S
C553        C558   1.398       .  A
C553       C1466   1.401       .  A
C553        H563   1.085       .  S
C554        C559   1.479       .  S
C554        C555   1.413       .  A
C554       C1465   1.401       .  A
C555        C556   1.398       .  A
C555        S560   1.807       .  S
C556       C1469   1.407       .  A
C556        H561   1.085       .  S
C557        C558   1.419       .  A
C557       C1468   1.407       .  A
C558        S562   1.802   1_556  S
C559        C564   1.411       .  A
C559       C1480   1.401       .  A
S560        H576   1.401       .  S
S562        H573   1.408       .  S
C564        C565   1.401       .  A
C564        S569   1.805       .  S
C565       C1478   1.402       .  A
C565        H570   1.084       .  S
C566        C567   1.415   1_556  A
C566       C1477   1.403       .  A
C567        C568   1.397       .  A
C567        S571   1.804       .  S
C568       C1471   1.401   1_554  A
C568        H572   1.085       .  S
S569        H574   1.407       .  S
S571        H575   1.407       .  S
C577        C582   1.397       .  A
C577       C1490   1.402       .  A
C577        H587   1.084       .  S
C578        C583   1.477       .  S
C578        C579   1.412   1_556  A
C578       C1489   1.403       .  A
C579        C580   1.397       .  A
C579        S584   1.804       .  S
C580       C1493   1.401   1_554  A
C580        H585   1.085       .  S
C581        C582   1.409       .  A
C581       C1492   1.402       .  A
C582        S586   1.802       .  S
C583        C588   1.408   1_556  A
C583       C1504   1.400       .  A
S584        H600   1.406       .  S
S586        H597   1.405       .  S
C588        C589   1.401       .  A
C588        S593   1.807       .  S
C589        C590   1.406   1_554  A
C589        H594   1.084       .  S
C590       C1503   1.412       .  A
C591        C592   1.395       .  A
C591       C1502   1.412       .  A
C591        S595   1.801       .  S
C592       C1495   1.400       .  A
C592        H596   1.082       .  S
S593        H598   1.407       .  S
S595        H599   1.407       .  S
C601        C606   1.401       .  A
C601       C1514   1.402       .  A
C601        H611   1.083       .  S
C602        C607   1.476       .  S
C602        C603   1.411   1_556  A
C602       C1513   1.402       .  A
C603        C604   1.396       .  A
C603        S608   1.804       .  S
C604        C605   1.404   1_554  A
C604        H609   1.083       .  S
C605       C1518   1.416       .  A
C606       C1517   1.416       .  A
C606        S610   1.804       .  S
C607        C612   1.408   1_556  A
C607       C1528   1.400       .  A
S608        H624   1.405       .  S
S610        H621   1.407       .  S
C612        C613   1.400       .  A
C612        S617   1.807       .  S
C613       C1526   1.404   1_554  A
C613        H618   1.083       .  S
C614        C615   1.418       .  A
C614       C1525   1.404       .  A
C615        C616   1.399       .  A
C615        S619   1.804       .  S
C616       C1519   1.400       .  A
C616        H620   1.084       .  S
S617        H622   1.407       .  S
S619        H623   1.408       .  S
C625        C626   1.400       .  A
C625        C630   1.398       .  A
C625        H635   1.085       .  S
C626        C631   1.472       .  S
C626        C627   1.410       .  A
C627        C628   1.396       .  A
C627        S632   1.803       .  S
C628        C629   1.405       .  A
C628        H633   1.084       .  S
C629        C630   1.417       .  A
C630        S634   1.802       .  S
C631        C636   1.408       .  A
C631        C640   1.399       .  A
S632        H648   1.404       .  S
S634        H645   1.408       .  S
C636        C637   1.400       .  A
C636        S641   1.806       .  S
C637        C638   1.403       .  A
C637        H642   1.084       .  S
C638        C639   1.416       .  A
C639        C640   1.398       .  A
C639        S643   1.803       .  S
C640        H644   1.085       .  S
S641        H646   1.407       .  S
S643        H647   1.407       .  S
C649        C654   1.400       .  A
C649       C1562   1.401       .  A
C649        H659   1.085       .  S
C650        C655   1.480       .  S
C650        C651   1.413       .  A
C650       C1561   1.401       .  A
C651        C652   1.399       .  A
C651        S656   1.803       .  S
C652        C653   1.403       .  A
C652        H657   1.085       .  S
C653       C1566   1.416       .  A
C654       C1565   1.416       .  A
C654        S658   1.803       .  S
C655        C660   1.407       .  A
C655       C1576   1.402       .  A
S656        H672   1.405       .  S
S658        H669   1.407       .  S
C660        C661   1.400       .  A
C660        S665   1.807       .  S
C661        C662   1.407       .  A
C661        H666   1.083       .  S
C662       C1575   1.418       .  A
C663        C664   1.402       .  A
C663       C1574   1.418       .  A
C663        S667   1.803       .  S
C664       C1567   1.401       .  A
C664        H668   1.084       .  S
S665        H670   1.407       .  S
S667        H671   1.407       .  S
C673        C674   1.401       .  A
C673        C678   1.400       .  A
C673        H683   1.084       .  S
C674        C679   1.478       .  S
C674        C675   1.412       .  A
C675        C676   1.399       .  A
C675        S680   1.804       .  S
C676        C677   1.403       .  A
C676        H681   1.084       .  S
C677        C678   1.416       .  A
C678        S682   1.804       .  S
C679        C684   1.408       .  A
C679        C688   1.400       .  A
S680        H696   1.405       .  S
S682        H693   1.405       .  S
C684        C685   1.401       .  A
C684        S689   1.806       .  S
C685        C686   1.406       .  A
C685        H690   1.083       .  S
C686        C687   1.419       .  A
C687        C688   1.399       .  A
C687        S691   1.804       .  S
C688        H692   1.085       .  S
S689        H694   1.407       .  S
S691        H695   1.408       .  S
C697        C702   1.399       .  A
C697       C1610   1.400       .  A
C697        H707   1.084       .  S
C698        C703   1.473       .  S
C698        C699   1.411   1_556  A
C698       C1609   1.400       .  A
C699        C700   1.396       .  A
C699        S704   1.805       .  S
C700       C1613   1.403   1_554  A
C700        H705   1.084       .  S
C701        C702   1.416       .  A
C701       C1612   1.403       .  A
C702        S706   1.803       .  S
C703        C708   1.406   1_556  A
C703       C1624   1.400       .  A
S704        H720   1.404       .  S
S706        H717   1.405       .  S
C708        C709   1.399       .  A
C708        S713   1.806       .  S
C709       C1622   1.405   1_554  A
C709        H714   1.084       .  S
C710        C711   1.418       .  A
C710       C1621   1.406       .  A
C711        C712   1.399       .  A
C711        S715   1.804       .  S
C712       C1615   1.400       .  A
C712        H716   1.085       .  S
S713        H718   1.407       .  S
S715        H719   1.408       .  S
C721        C722   1.401       .  A
C721        C726   1.401       .  A
C721        H731   1.085       .  S
C722        C727   1.477       .  S
C722        C723   1.412       .  A
C723        C724   1.397       .  A
C723        S728   1.804       .  S
C724        C725   1.404       .  A
C724        H729   1.085       .  S
C725        C726   1.416       .  A
C726        S730   1.802       .  S
C727        C732   1.407       .  A
C727        C736   1.399       .  A
S728        H744   1.405       .  S
S730        H741   1.407       .  S
C732        C733   1.401       .  A
C732        S737   1.803       .  S
C733        C734   1.406       .  A
C733        H738   1.083       .  S
C734        C735   1.419       .  A
C735        C736   1.398       .  A
C735        S739   1.802       .  S
C736        H740   1.084       .  S
S737        H742   1.407       .  S
S739        H743   1.407       .  S
C745        C750   1.398       .  A
C745       C1658   1.401       .  A
C745        H755   1.085       .  S
C746        C751   1.477       .  S
C746        C747   1.412       .  A
C746       C1657   1.401       .  A
C747        C748   1.398       .  A
C747        S752   1.803       .  S
C748        C749   1.403       .  A
C748        H753   1.085       .  S
C749       C1662   1.414       .  A
C750       C1661   1.414       .  A
C750        S754   1.803       .  S
C751        C756   1.407       .  A
C751       C1672   1.399       .  A
S752        H768   1.405       .  S
S754        H765   1.407       .  S
C756        C757   1.401       .  A
C756        S761   1.805       .  S
C757        C758   1.405       .  A
C757        H762   1.083       .  S
C758       C1671   1.420       .  A
C759        C760   1.400       .  A
C759       C1670   1.418       .  A
C759        S763   1.803       .  S
C760       C1663   1.400       .  A
C760        H764   1.084       .  S
S761        H766   1.407       .  S
S763        H767   1.408       .  S
C769        C770   1.400       .  A
C769        C774   1.396       .  A
C769        H779   1.083       .  S
C770        C775   1.476       .  S
C770        C771   1.413       .  A
C771        C772   1.400       .  A
C771        S776   1.806       .  S
C772        C773   1.404       .  A
C772        H777   1.084       .  S
C773        C774   1.413       .  A
C774        S778   1.804       .  S
C775        C780   1.407       .  A
C775        C784   1.400       .  A
S776        H792   1.405       .  S
S778        H789   1.407       .  S
C780        C781   1.401       .  A
C780        S785   1.805       .  S
C781        C782   1.407       .  A
C781        H786   1.082       .  S
C782        C783   1.418       .  A
C783        C784   1.398       .  A
C783        S787   1.803       .  S
C784        H788   1.083       .  S
S785        H790   1.407       .  S
S787        H791   1.408       .  S
C793        C798   1.397       .  A
C793       C1706   1.401       .  A
C793        H803   1.082       .  S
C794        C799   1.479       .  S
C794        C795   1.413       .  A
C794       C1705   1.401       .  A
C795        C796   1.401       .  A
C795        S800   1.805       .  S
C796        C797   1.405       .  A
C796        H801   1.083       .  S
C797       C1710   1.414       .  A
C798       C1709   1.413       .  A
C798        S802   1.804       .  S
C799        C804   1.408       .  A
C799       C1720   1.400       .  A
S800        H816   1.405       .  S
S802        H813   1.407       .  S
C804        C805   1.402       .  A
C804        S809   1.804       .  S
C805        C806   1.406       .  A
C805        H810   1.083       .  S
C806       C1719   1.418       .  A
C807        C808   1.398       .  A
C807       C1718   1.417       .  A
C807        S811   1.803       .  S
C808       C1711   1.400       .  A
C808        H812   1.085       .  S
S809        H814   1.407       .  S
S811        H815   1.408       .  S
C817        C818   1.401       .  A
C817        C822   1.398       .  A
C817        H827   1.085       .  S
C818        C823   1.476       .  S
C818        C819   1.412       .  A
C819        C820   1.398       .  A
C819        S824   1.804       .  S
C820        C821   1.403       .  A
C820        H825   1.085       .  S
C821        C822   1.414       .  A
C822        S826   1.803       .  S
C823        C828   1.409       .  A
C823        C832   1.400       .  A
S824        H840   1.405       .  S
S826        H837   1.406       .  S
C828        C829   1.401       .  A
C828        S833   1.805       .  S
C829        C830   1.405       .  A
C829        H834   1.083       .  S
C830        C831   1.416       .  A
C831        C832   1.397       .  A
C831        S835   1.802       .  S
C832        H836   1.085       .  S
S833        H838   1.407       .  S
S835        H839   1.406       .  S
C841        C846   1.400       .  A
C841       C1754   1.400       .  A
C841        H851   1.084       .  S
C842        C847   1.477       .  S
C842        C843   1.411   1_556  A
C842       C1753   1.401       .  A
C843        C844   1.399       .  A
C843        S848   1.804       .  S
C844        C845   1.404   1_554  A
C844        H849   1.084       .  S
C845       C1758   1.417       .  A
C846       C1757   1.417       .  A
C846        S850   1.802       .  S
C847        C852   1.407   1_556  A
C847       C1768   1.401       .  A
S848        H864   1.404       .  S
S850        H861   1.407       .  S
C852        C853   1.401       .  A
C852        S857   1.805       .  S
C853        C854   1.405   1_554  A
C853        H858   1.084       .  S
C854       C1767   1.418       .  A
C855        C856   1.399       .  A
C855       C1766   1.418       .  A
C855        S859   1.804       .  S
C856       C1759   1.401       .  A
C856        H860   1.085       .  S
S857        H862   1.407       .  S
S859        H863   1.407       .  S
C865        C866   1.400       .  A
C865        C870   1.400       .  A
C865        H875   1.085       .  S
C866        C871   1.474       .  S
C866        C867   1.411       .  A
C867        C868   1.397       .  A
C867        S872   1.804       .  S
C868        C869   1.403       .  A
C868        H873   1.084       .  S
C869        C870   1.416       .  A
C870        S874   1.803       .  S
C871        C876   1.407       .  A
C871        C880   1.401       .  A
S872        H888   1.404       .  S
S874        H885   1.406       .  S
C876        C877   1.400       .  A
C876        S881   1.807       .  S
C877        C878   1.406       .  A
C877        H882   1.083       .  S
C878        C879   1.416       .  A
C879        C880   1.399       .  A
C879        S883   1.803       .  S
C880        H884   1.085       .  S
S881        H886   1.407       .  S
S883        H887   1.407       .  S
C889        C894   1.404       .  A
C889       C1802   1.403       .  A
C889        H899   1.085       .  S
C890        C895   1.478       .  S
C890        C891   1.410       .  A
C890       C1801   1.403       .  A
C891        C892   1.395       .  A
C891        S896   1.804       .  S
C892        C893   1.405       .  A
C892        H897   1.085       .  S
C893       C1806   1.416       .  A
C894       C1805   1.416       .  A
C894        S898   1.801       .  S
C895        C900   1.409       .  A
C895       C1816   1.400       .  A
S896        H912   1.405       .  S
S898        H909   1.407       .  S
C900        C901   1.403       .  A
C900        S905   1.807       .  S
C901        C902   1.405       .  A
C901        H906   1.084       .  S
C902       C1815   1.417       .  A
C903        C904   1.400       .  A
C903       C1814   1.417       .  A
C903        S907   1.803       .  S
C904       C1807   1.400       .  A
C904        H908   1.085       .  S
S905        H910   1.407       .  S
S907        H911   1.406       .  S
O913        C923   1.276       .  A
O914        C924   1.277       .  A
O914       Cu921   2.009   1_556  S
O915       Cu921   2.014       .  S
O917       Cu922   2.008       .  S
O919        C924   1.278       .  A
O920        C923   1.277       .  A
O920       Cu922   2.000       .  S
C923        C939   1.458       .  S
C924        C940   1.467       .  S
C925        C954   1.468       .  S
C926       C1814   1.481       .  S
O927        C937   1.278       .  A
O927       Cu935   2.010       .  S
O928        C938   1.278       .  A
O928       Cu935   2.011       .  S
O929        C939   1.276       .  A
O929       Cu935   1.994       .  S
O930        C940   1.277       .  A
O930       Cu935   2.008       .  S
O931        C940   1.278       .  A
O931       Cu936   2.010       .  S
O932        C939   1.277       .  A
O932       Cu936   2.003       .  S
O933        C938   1.277       .  A
O933       Cu936   2.000       .  S
O934        C937   1.276       .  A
O934       Cu936   1.996       .  S
Cu935      Cu936   2.377       .  S
C937       C1781   1.472       .  S
C938        C966   1.465       .  S
O941        C951   1.277       .  A
O942        C952   1.276       .  A
O942       Cu949   1.997   1_556  S
O943       Cu949   2.016   1_545  S
O944        C954   1.278       .  A
O945        C954   1.277       .  A
O945       Cu950   2.006       .  S
O947        C952   1.276       .  A
O948        C951   1.278       .  A
O948       Cu950   2.010       .  S
C951        C967   1.466       .  S
C952        C968   1.457       .  S
C953       C1757   1.480       .  S
O955        C965   1.277       .  A
O955       Cu963   2.001   1_545  S
O956        C966   1.277       .  A
O956       Cu963   2.002       .  S
O957        C967   1.278       .  A
O957       Cu963   2.007       .  S
O958        C968   1.277       .  A
O958       Cu963   2.001       .  S
O959        C968   1.276       .  A
O959       Cu964   1.993       .  S
O960        C967   1.277       .  A
O960       Cu964   2.009       .  S
O961        C966   1.278       .  A
O961       Cu964   2.010       .  S
O962        C965   1.278       .  A
O962       Cu964   2.010   1_545  S
Cu963      Cu964   2.378       .  S
C965       C1733   1.472       .  S
O969        C979   1.278       .  A
O969       Cu977   2.013       .  S
O970        C980   1.278       .  A
O970       Cu977   2.012       .  S
O971        C981   1.277       .  A
O971       Cu977   2.002   1_556  S
O972        C982   1.277       .  A
O973        C982   1.277       .  A
O974        C981   1.277       .  A
O974       Cu978   2.001   1_556  S
O975        C980   1.277       .  A
O975       Cu978   2.005       .  S
O976        C979   1.277       .  A
O976       Cu978   2.003       .  S
Cu977      Cu978   2.377       .  S
C979       C1709   1.475       .  S
C980       C1009   1.467   1_655  S
C981        C994   1.461       .  S
C982        C993   1.463       .  S
O983        C993   1.277       .  A
O983       Cu991   2.005       .  S
O984        C994   1.277       .  A
O984       Cu991   2.000       .  S
O985        C995   1.277       .  A
O985       Cu991   2.001       .  S
O986        C996   1.277       .  A
O986       Cu991   2.005       .  S
O987        C996   1.278       .  A
O987       Cu992   2.009       .  S
O988        C995   1.278       .  A
O988       Cu992   2.008       .  S
O989        C994   1.277       .  A
O989       Cu992   2.004       .  S
O990        C993   1.277       .  A
O990       Cu992   2.002       .  S
Cu991      Cu992   2.377       .  S
C995       C1685   1.472       .  S
C996       C1022   1.465   1_655  S
O997       C1007   1.277       .  A
O997      Cu1005   2.005   1_556  S
O998       C1008   1.278       .  A
O1000      C1010   1.277       .  A
O1000     Cu1005   2.005       .  S
O1001      C1010   1.279       .  A
O1001     Cu1006   2.012       .  S
O1002      C1009   1.278       .  A
O1002     Cu1006   2.012       .  S
O1003      C1008   1.275       .  A
O1004      C1007   1.277       .  A
O1004     Cu1006   2.007   1_556  S
Cu1005    Cu1006   2.377       .  S
C1007      C1023   1.465       .  S
C1008      C1024   1.460       .  S
C1010      C1661   1.478       .  S
O1011      C1021   1.277       .  A
O1011     Cu1019   1.997       .  S
O1012      C1022   1.276       .  A
O1012     Cu1019   1.999       .  S
O1013      C1023   1.278       .  A
O1013     Cu1019   2.008       .  S
O1014      C1024   1.278       .  A
O1014     Cu1019   2.005       .  S
O1015      C1024   1.276       .  A
O1015     Cu1020   1.997       .  S
O1016      C1023   1.277       .  A
O1016     Cu1020   2.003       .  S
O1017      C1022   1.279       .  A
O1017     Cu1020   2.015       .  S
O1018      C1021   1.279       .  A
O1018     Cu1020   2.017       .  S
Cu1019    Cu1020   2.376       .  S
C1021      C1637   1.479       .  S
O1025      C1035   1.276       .  A
O1025     Cu1033   1.994   1_556  S
O1026      C1036   1.278       .  A
O1027      C1037   1.278       .  A
O1027     Cu1033   2.014   1_565  S
O1028      C1038   1.278       .  A
O1028     Cu1033   2.012   1_556  S
O1029      C1038   1.277       .  A
O1029     Cu1034   1.997   1_556  S
O1030      C1037   1.277       .  A
O1030     Cu1034   2.002   1_565  S
O1031      C1036   1.277       .  A
O1032      C1035   1.277       .  A
O1032     Cu1034   2.003   1_556  S
Cu1033    Cu1034   2.377       .  S
C1035      C1050   1.459       .  S
C1036      C1049   1.467       .  S
C1037      C1065   1.466       .  S
C1038      C1613   1.474       .  S
O1039      C1049   1.277       .  A
O1039     Cu1047   2.005       .  S
O1040      C1050   1.277       .  A
O1040     Cu1047   1.998       .  S
O1041      C1051   1.277       .  A
O1041     Cu1047   2.006   1_565  S
O1042      C1052   1.278       .  A
O1042     Cu1047   2.008       .  S
O1043      C1052   1.278       .  A
O1043     Cu1048   2.011       .  S
O1044      C1051   1.278       .  A
O1044     Cu1048   2.008   1_565  S
O1045      C1050   1.276       .  A
O1045     Cu1048   1.998       .  S
O1046      C1049   1.278       .  A
O1046     Cu1048   2.012       .  S
Cu1047    Cu1048   2.377       .  S
C1051      C1080   1.466       .  S
C1052      C1589   1.476       .  S
O1053      C1063   1.278       .  A
O1053     Cu1061   2.009   1_556  S
O1054      C1064   1.276       .  A
O1055      C1065   1.277       .  A
O1055     Cu1061   2.005       .  S
O1056      C1066   1.278       .  A
O1056     Cu1061   2.009       .  S
O1057      C1066   1.279       .  A
O1057     Cu1062   2.014       .  S
O1058      C1065   1.278       .  A
O1058     Cu1062   2.011       .  S
O1059      C1064   1.276       .  A
O1060      C1063   1.278       .  A
O1060     Cu1062   2.008   1_556  S
Cu1061    Cu1062   2.376       .  S
C1063      C1078   1.467       .  S
C1064      C1077   1.457       .  S
C1066      C1565   1.479       .  S
O1067      C1077   1.276       .  A
O1067     Cu1075   1.998       .  S
O1068      C1078   1.277       .  A
O1068     Cu1075   2.007       .  S
O1069      C1079   1.277       .  A
O1069     Cu1075   2.001       .  S
O1070      C1080   1.277       .  A
O1070     Cu1075   2.006       .  S
O1071      C1080   1.278       .  A
O1071     Cu1076   2.008       .  S
O1072      C1079   1.277       .  A
O1072     Cu1076   2.005       .  S
O1073      C1078   1.278       .  A
O1073     Cu1076   2.010       .  S
O1074      C1077   1.276       .  A
O1074     Cu1076   1.996       .  S
Cu1075    Cu1076   2.377       .  S
C1079      C1550   1.474       .  S
O1081      C1091   1.278       .  A
O1081     Cu1089   2.003       .  S
O1082      C1092   1.278       .  A
O1082     Cu1089   2.005       .  S
O1083      C1093   1.276       .  A
O1083     Cu1089   1.992       .  S
O1084      C1094   1.275       .  A
O1084     Cu1089   1.990       .  S
O1085     Cu1090   2.012       .  S
O1086     Cu1090   2.014       .  S
O1087     Cu1090   2.006       .  S
O1088     Cu1090   2.005       .  S
C1091      C1517   1.476       .  S
C1092      C1766   1.478       .  S
C1093      C1502   1.474       .  S
C1094      C1478   1.474       .  S
O1095      C1105   1.277       .  A
O1095     Cu1103   2.003       .  S
O1096      C1106   1.276       .  A
O1096     Cu1103   1.997       .  S
O1097      C1107   1.279       .  A
O1097     Cu1103   2.015       .  S
O1098      C1108   1.278       .  A
O1098     Cu1103   2.011       .  S
O1099      C1108   1.277       .  A
O1099     Cu1104   2.005       .  S
O1100      C1107   1.277       .  A
O1100     Cu1104   2.006       .  S
O1101      C1106   1.278       .  A
O1101     Cu1104   2.006       .  S
O1102      C1105   1.278       .  A
O1102     Cu1104   2.006       .  S
Cu1103    Cu1104   2.373       .  S
C1105      C1742   1.477       .  S
C1106      C1454   1.475       .  S
C1107      C1406   1.483       .  S
C1108      C1421   1.475       .  S
O1109      C1119   1.276       .  A
O1109     Cu1117   1.999       .  S
O1110      C1120   1.278   1_556  A
O1110     Cu1117   2.001       .  S
O1111      C1121   1.279       .  A
O1111     Cu1117   2.016       .  S
O1112      C1122   1.279   1_556  A
O1112     Cu1117   2.013       .  S
O1113     Cu1118   1.998       .  S
O1114     Cu1118   1.999       .  S
O1115     Cu1118   2.019       .  S
O1116     Cu1118   2.015       .  S
C1119      C1526   1.478       .  S
C1120      C1805   1.482       .  S
C1121      C1382   1.481       .  S
C1122      C1670   1.480       .  S
O1123      C1133   1.276       .  A
O1123     Cu1131   2.001       .  S
O1124      C1134   1.277       .  A
O1124     Cu1131   1.999       .  S
O1125      C1135   1.278       .  A
O1125     Cu1131   2.004       .  S
O1126      C1136   1.277       .  A
O1126     Cu1131   2.005       .  S
O1127      C1136   1.277       .  A
O1127     Cu1132   1.994       .  S
O1128      C1135   1.276       .  A
O1128     Cu1132   1.996       .  S
O1129      C1134   1.278       .  A
O1129     Cu1132   2.006       .  S
O1130      C1133   1.279       .  A
O1130     Cu1132   2.010       .  S
Cu1131    Cu1132   2.372       .  S
C1133      C1646   1.483       .  S
C1134      C1349   1.479       .  S
C1135      C1445   1.475       .  S
C1136      C1790   1.476       .  S
O1137     Cu1145   2.002       .  S
O1138     Cu1145   2.009       .  S
O1139     Cu1145   1.993       .  S
O1140     Cu1145   1.994       .  S
O1141      C1150   1.278       .  A
O1141     Cu1146   2.006       .  S
O1142      C1149   1.277       .  A
O1142     Cu1146   2.007       .  S
O1143      C1148   1.276       .  A
O1143     Cu1146   1.999       .  S
O1144      C1147   1.277       .  A
O1144     Cu1146   2.004       .  S
C1147      C1622   1.477       .  S
C1148      C1334   1.475       .  S
C1149      C1493   1.463       .  S
C1150      C1301   1.475       .  S
O1151      C1161   1.277       .  A
O1151     Cu1159   2.001       .  S
O1152      C1162   1.276       .  A
O1152     Cu1159   2.001       .  S
O1153      C1163   1.278       .  A
O1153     Cu1159   2.000       .  S
O1154      C1164   1.279       .  A
O1154     Cu1159   2.008       .  S
O1155      C1164   1.276       .  A
O1155     Cu1160   2.000       .  S
O1156      C1163   1.276       .  A
O1156     Cu1160   2.003       .  S
O1157      C1162   1.278       .  A
O1157     Cu1160   2.013       .  S
O1158      C1161   1.280       .  A
O1158     Cu1160   2.018       .  S
Cu1159    Cu1160   2.373       .  S
C1161      C1253   1.484       .  S
C1162      C1430   1.471       .  S
C1163      C1286   1.473       .  S
C1164      C1598   1.483       .  S
O1165      C1175   1.278   1_556  A
O1165     Cu1173   2.005       .  S
O1166      C1176   1.277       .  A
O1166     Cu1173   2.004       .  S
O1167      C1177   1.279       .  A
O1167     Cu1173   2.014       .  S
O1168      C1178   1.279   1_556  A
O1168     Cu1173   2.013       .  S
O1169     Cu1174   2.003       .  S
O1170     Cu1174   2.007       .  S
O1171     Cu1174   2.012       .  S
O1172     Cu1174   2.018       .  S
C1175      C1574   1.483       .  S
C1176      C1325   1.476       .  S
C1177      C1373   1.481       .  S
C1178      C1718   1.481       .  S
O1179      C1189   1.277       .  A
O1179     Cu1187   2.001       .  S
O1180      C1190   1.278       .  A
O1180     Cu1187   2.002       .  S
O1181      C1191   1.278       .  A
O1181     Cu1187   2.001       .  S
O1182      C1192   1.276       .  A
O1182     Cu1187   1.999       .  S
O1183      C1192   1.278       .  A
O1183     Cu1188   2.004       .  S
O1184      C1191   1.276       .  A
O1184     Cu1188   2.001       .  S
O1185      C1190   1.277       .  A
O1185     Cu1188   2.002       .  S
O1186      C1189   1.278       .  A
O1186     Cu1188   2.005       .  S
Cu1187    Cu1188   2.373       .  S
C1189      C1358   1.474       .  S
C1190      C1694   1.481       .  S
C1191      C1277   1.472       .  S
C1192      C1541   1.477       .  S
O1193      C1203   1.277       .  A
O1194      C1204   1.276       .  A
O1194     Cu1201   1.999       .  S
O1195      C1205   1.278       .  A
O1195     Cu1201   2.011       .  S
O1196      C1206   1.279       .  A
O1196     Cu1201   2.008       .  S
O1197     Cu1202   2.005       .  S
O1198      C1205   1.277       .  A
O1199      C1204   1.277       .  A
O1200      C1203   1.277       .  A
O1200     Cu1202   2.005       .  S
C1203      C1217   1.463       .  S
C1204      C1218   1.461       .  S
C1205      C1232   1.466   1_455  S
C1206      C1469   1.488       .  S
O1207      C1217   1.276       .  A
O1207     Cu1215   2.002       .  S
O1208      C1218   1.276       .  A
O1208     Cu1215   1.997       .  S
O1209      C1219   1.278       .  A
O1209     Cu1215   2.010       .  S
O1210      C1220   1.279       .  A
O1210     Cu1215   2.012       .  S
O1211      C1220   1.278       .  A
O1211     Cu1216   2.016       .  S
O1212      C1219   1.278       .  A
O1212     Cu1216   2.015       .  S
O1213      C1218   1.277       .  A
O1213     Cu1216   2.005       .  S
O1214      C1217   1.277       .  A
O1214     Cu1216   2.005       .  S
Cu1215    Cu1216   2.374       .  S
C1219      C1247   1.470   1_455  S
C1220      C1397   1.492       .  S
O1221      C1231   1.278       .  A
O1221     Cu1229   2.008       .  S
O1222     Cu1229   2.009       .  S
O1223      C1233   1.276       .  A
O1223     Cu1229   1.999       .  S
O1224      C1234   1.276       .  A
O1225      C1234   1.278       .  A
O1225     Cu1230   2.008       .  S
O1226      C1233   1.278       .  A
O1228     Cu1230   2.005       .  S
C1231      C1310   1.474       .  S
C1233      C1245   1.461       .  S
C1234      C1246   1.464       .  S
O1235      C1245   1.276       .  A
O1235     Cu1243   1.996       .  S
O1236      C1246   1.277       .  A
O1236     Cu1243   2.004       .  S
O1237      C1247   1.279       .  A
O1237     Cu1243   2.019       .  S
O1238      C1248   1.279       .  A
O1238     Cu1243   2.017       .  S
O1239      C1248   1.277       .  A
O1239     Cu1244   2.006       .  S
O1240      C1247   1.277       .  A
O1240     Cu1244   2.006       .  S
O1241      C1246   1.278       .  A
O1241     Cu1244   2.006       .  S
O1242      C1245   1.278       .  A
O1242     Cu1244   2.008       .  S
Cu1243    Cu1244   2.376       .  S
C1248      C1262   1.477       .  S
C1249      C1250   1.401       .  A
C1249      C1254   1.398       .  A
C1249      H1259   1.083       .  S
C1250      C1255   1.480       .  S
C1250      C1251   1.412       .  A
C1251      C1252   1.401       .  A
C1251      S1256   1.806       .  S
C1252      C1253   1.408       .  A
C1252      H1257   1.085       .  S
C1253      C1254   1.415       .  A
C1254      S1258   1.801       .  S
C1255      C1260   1.410       .  A
C1255      C1264   1.401       .  A
S1256      H1272   1.405       .  S
S1258      H1269   1.407       .  S
C1260      C1261   1.406       .  A
C1260      S1265   1.806       .  S
C1261      C1262   1.406       .  A
C1261      H1266   1.083       .  S
C1262      C1263   1.413       .  A
C1263      C1264   1.397       .  A
C1263      S1267   1.803       .  S
C1264      H1268   1.082       .  S
S1265      H1270   1.407       .  S
S1267      H1271   1.407       .  S
C1273      C1274   1.401       .  A
C1273      C1278   1.398       .  A
C1273      H1283   1.083       .  S
C1274      C1279   1.474       .  S
C1274      C1275   1.412       .  A
C1275      C1276   1.396       .  A
C1275      S1280   1.806       .  S
C1276      C1277   1.403       .  A
C1276      H1281   1.083       .  S
C1277      C1278   1.414       .  A
C1278      S1282   1.804       .  S
C1279      C1284   1.408       .  A
C1279      C1288   1.400       .  A
S1280      H1296   1.405       .  S
S1282      H1293   1.407       .  S
C1284      C1285   1.399       .  A
C1284      S1289   1.807       .  S
C1285      C1286   1.404       .  A
C1285      H1290   1.083       .  S
C1286      C1287   1.416       .  A
C1287      C1288   1.398       .  A
C1287      S1291   1.803       .  S
C1288      H1292   1.085       .  S
S1289      H1294   1.407       .  S
S1291      H1295   1.403       .  S
C1297      C1302   1.395       .  A
C1297      H1307   1.084       .  S
C1298      C1303   1.472       .  S
C1298      C1299   1.413       .  A
C1299      C1300   1.399       .  A
C1299      S1304   1.806       .  S
C1300      C1301   1.404       .  A
C1300      H1305   1.084       .  S
C1302      S1306   1.804       .  S
C1303      C1308   1.407       .  A
S1304      H1320   1.402       .  S
S1306      H1317   1.408       .  S
C1308      C1309   1.401       .  A
C1308      S1313   1.805       .  S
C1309      C1310   1.404       .  A
C1309      H1314   1.083       .  S
C1311      C1312   1.398       .  A
C1311      S1315   1.803       .  S
C1312      H1316   1.084       .  S
S1313      H1318   1.407       .  S
S1315      H1319   1.407       .  S
C1321      C1326   1.399       .  A
C1321      H1331   1.085       .  S
C1322      C1327   1.476       .  S
C1322      C1323   1.411       .  A
C1323      C1324   1.397       .  A
C1323      S1328   1.804       .  S
C1324      H1329   1.085       .  S
C1325      C1326   1.416       .  A
C1326      S1330   1.802       .  S
C1327      C1332   1.409       .  A
S1328      H1344   1.405       .  S
S1330      H1341   1.407       .  S
C1332      C1333   1.401       .  A
C1332      S1337   1.807       .  S
C1333      H1338   1.082       .  S
C1334      C1335   1.416       .  A
C1335      C1336   1.398       .  A
C1335      S1339   1.802       .  S
C1336      H1340   1.083       .  S
S1337      H1342   1.407       .  S
S1339      H1343   1.407       .  S
C1345      C1346   1.401       .  A
C1345      C1350   1.396       .  A
C1345      H1355   1.083       .  S
C1346      C1351   1.476       .  S
C1346      C1347   1.412       .  A
C1347      C1348   1.398       .  A
C1347      S1352   1.806       .  S
C1348      C1349   1.406       .  A
C1348      H1353   1.084       .  S
C1349      C1350   1.416       .  A
C1350      S1354   1.803       .  S
C1351      C1356   1.410       .  A
C1351      C1360   1.400       .  A
S1352      H1368   1.405       .  S
S1354      H1365   1.408       .  S
C1356      C1357   1.402       .  A
C1356      S1361   1.807       .  S
C1357      C1358   1.405       .  A
C1357      H1362   1.083       .  S
C1358      C1359   1.414       .  A
C1359      C1360   1.395       .  A
C1359      S1363   1.802       .  S
C1360      H1364   1.083       .  S
S1361      H1366   1.407       .  S
S1363      H1367   1.407       .  S
C1369      C1374   1.399       .  A
C1369      H1379   1.084       .  S
C1370      C1375   1.481       .  S
C1370      C1371   1.413       .  A
C1371      C1372   1.400       .  A
C1371      S1376   1.805       .  S
C1372      C1373   1.405       .  A
C1372      H1377   1.083       .  S
C1374      S1378   1.803       .  S
C1375      C1380   1.410       .  A
S1376      H1392   1.405       .  S
S1378      H1389   1.408       .  S
C1380      C1381   1.404       .  A
C1380      S1385   1.805       .  S
C1381      C1382   1.406       .  A
C1381      H1386   1.083       .  S
C1383      C1384   1.398       .  A
C1383      S1387   1.804       .  S
C1384      H1388   1.084       .  S
S1385      H1390   1.407       .  S
S1387      H1391   1.408       .  S
C1393      C1394   1.402       .  A
C1393      C1398   1.401       .  A
C1393      H1403   1.085       .  S
C1394      C1399   1.482       .  S
C1394      C1395   1.413       .  A
C1395      C1396   1.400       .  A
C1395      S1400   1.808       .  S
C1396      C1397   1.407       .  A
C1396      H1401   1.084       .  S
C1397      C1398   1.419       .  A
C1398      S1402   1.802       .  S
C1399      C1404   1.409       .  A
C1399      C1408   1.401       .  A
S1400      H1416   1.400       .  S
S1402      H1413   1.408       .  S
C1404      C1405   1.404       .  A
C1404      S1409   1.804       .  S
C1405      C1406   1.405       .  A
C1405      H1410   1.083       .  S
C1406      C1407   1.418       .  A
C1407      C1408   1.400       .  A
C1407      S1411   1.803       .  S
C1408      H1412   1.084       .  S
S1409      H1414   1.406       .  S
S1411      H1415   1.408       .  S
C1417      C1418   1.401       .  A
C1417      C1422   1.399       .  A
C1417      H1427   1.084       .  S
C1418      C1423   1.478       .  S
C1418      C1419   1.412       .  A
C1419      C1420   1.399       .  A
C1419      S1424   1.803       .  S
C1420      C1421   1.403       .  A
C1420      H1425   1.084       .  S
C1421      C1422   1.415       .  A
C1422      S1426   1.804       .  S
C1423      C1428   1.410       .  A
C1423      C1432   1.401       .  A
S1424      H1440   1.404       .  S
S1426      H1437   1.405       .  S
C1428      C1429   1.403       .  A
C1428      S1433   1.804       .  S
C1429      C1430   1.403       .  A
C1429      H1434   1.082       .  S
C1430      C1431   1.414       .  A
C1431      C1432   1.398       .  A
C1431      S1435   1.806       .  S
C1432      H1436   1.083       .  S
S1433      H1438   1.407       .  S
S1435      H1439   1.402       .  S
C1441      C1442   1.400       .  A
C1441      C1446   1.398       .  A
C1441      H1451   1.083       .  S
C1442      C1447   1.473       .  S
C1442      C1443   1.411       .  A
C1443      C1444   1.396       .  A
C1443      S1448   1.804       .  S
C1444      C1445   1.404       .  A
C1444      H1449   1.084       .  S
C1445      C1446   1.417       .  A
C1446      S1450   1.804       .  S
C1447      C1452   1.408       .  A
C1447      C1456   1.399       .  A
S1448      H1464   1.405       .  S
S1450      H1461   1.408       .  S
C1452      C1453   1.400       .  A
C1452      S1457   1.807       .  S
C1453      C1454   1.405       .  A
C1453      H1458   1.082       .  S
C1454      C1455   1.417       .  A
C1455      C1456   1.397       .  A
C1455      S1459   1.804       .  S
C1456      H1460   1.084       .  S
S1457      H1462   1.407       .  S
S1459      H1463   1.408       .  S
C1465      C1470   1.398       .  A
C1465      H1475   1.085       .  S
C1466      C1471   1.479       .  S
C1466      C1467   1.413       .  A
C1467      C1468   1.398       .  A
C1467      S1472   1.807       .  S
C1468      H1473   1.085       .  S
C1469      C1470   1.419       .  A
C1470      S1474   1.802       .  S
C1471      C1476   1.411       .  A
S1472      H1488   1.400       .  S
S1474      H1485   1.408       .  S
C1476      C1477   1.401       .  A
C1476      S1481   1.805       .  S
C1477      H1482   1.084       .  S
C1478      C1479   1.415       .  A
C1479      C1480   1.397       .  A
C1479      S1483   1.804       .  S
C1480      H1484   1.085       .  S
S1481      H1486   1.407       .  S
S1483      H1487   1.407       .  S
C1489      C1494   1.397       .  A
C1489      H1499   1.084       .  S
C1490      C1495   1.477       .  S
C1490      C1491   1.412       .  A
C1491      C1492   1.398       .  A
C1491      S1496   1.804       .  S
C1492      H1497   1.085       .  S
C1493      C1494   1.409       .  A
C1494      S1498   1.803       .  S
C1495      C1500   1.407       .  A
S1496      H1512   1.406       .  S
S1498      H1509   1.406       .  S
C1500      C1501   1.402       .  A
C1500      S1505   1.807       .  S
C1501      C1502   1.406       .  A
C1501      H1506   1.084       .  S
C1503      C1504   1.395       .  A
C1503      S1507   1.801       .  S
C1504      H1508   1.084       .  S
S1505      H1510   1.407       .  S
S1507      H1511   1.407       .  S
C1513      C1518   1.401       .  A
C1513      H1523   1.083       .  S
C1514      C1519   1.475       .  S
C1514      C1515   1.411       .  A
C1515      C1516   1.395       .  A
C1515      S1520   1.804       .  S
C1516      C1517   1.403       .  A
C1516      H1521   1.083       .  S
C1518      S1522   1.804       .  S
C1519      C1524   1.408       .  A
S1520      H1536   1.405       .  S
S1522      H1533   1.407       .  S
C1524      C1525   1.400       .  A
C1524      S1529   1.807       .  S
C1525      H1530   1.082       .  S
C1526      C1527   1.417       .  A
C1527      C1528   1.400       .  A
C1527      S1531   1.804       .  S
C1528      H1532   1.084       .  S
S1529      H1534   1.407       .  S
S1531      H1535   1.408       .  S
C1537      C1538   1.399       .  A
C1537      C1542   1.398       .  A
C1537      H1547   1.085       .  S
C1538      C1543   1.472       .  S
C1538      C1539   1.410       .  A
C1539      C1540   1.396       .  A
C1539      S1544   1.803       .  S
C1540      C1541   1.404       .  A
C1540      H1545   1.084       .  S
C1541      C1542   1.417       .  A
C1542      S1546   1.802       .  S
C1543      C1548   1.407       .  A
C1543      C1552   1.399       .  A
S1544      H1560   1.404       .  S
S1546      H1557   1.408       .  S
C1548      C1549   1.399       .  A
C1548      S1553   1.806       .  S
C1549      C1550   1.403       .  A
C1549      H1554   1.084       .  S
C1550      C1551   1.416       .  A
C1551      C1552   1.398       .  A
C1551      S1555   1.803       .  S
C1552      H1556   1.085       .  S
S1553      H1558   1.407       .  S
S1555      H1559   1.406       .  S
C1561      C1566   1.401       .  A
C1561      H1571   1.085       .  S
C1562      C1567   1.478       .  S
C1562      C1563   1.412   1_554  A
C1563      C1564   1.399       .  A
C1563      S1568   1.803       .  S
C1564      C1565   1.403   1_556  A
C1564      H1569   1.085       .  S
C1566      S1570   1.803       .  S
C1567      C1572   1.407   1_554  A
S1568      H1584   1.404       .  S
S1570      H1581   1.406       .  S
C1572      C1573   1.400       .  A
C1572      S1577   1.805       .  S
C1573      C1574   1.406   1_556  A
C1573      H1578   1.083       .  S
C1575      C1576   1.403       .  A
C1575      S1579   1.803       .  S
C1576      H1580   1.084       .  S
S1577      H1582   1.407       .  S
S1579      H1583   1.407       .  S
C1585      C1586   1.401       .  A
C1585      C1590   1.399       .  A
C1585      H1595   1.084       .  S
C1586      C1591   1.476       .  S
C1586      C1587   1.412       .  A
C1587      C1588   1.399       .  A
C1587      S1592   1.804       .  S
C1588      C1589   1.403       .  A
C1588      H1593   1.084       .  S
C1589      C1590   1.415       .  A
C1590      S1594   1.803       .  S
C1591      C1596   1.407       .  A
C1591      C1600   1.400       .  A
S1592      H1608   1.405       .  S
S1594      H1605   1.405       .  S
C1596      C1597   1.401       .  A
C1596      S1601   1.806       .  S
C1597      C1598   1.407       .  A
C1597      H1602   1.083       .  S
C1598      C1599   1.419       .  A
C1599      C1600   1.398       .  A
C1599      S1603   1.804       .  S
C1600      H1604   1.085       .  S
S1601      H1606   1.407       .  S
S1603      H1607   1.408       .  S
C1609      C1614   1.399       .  A
C1609      H1619   1.084       .  S
C1610      C1615   1.473       .  S
C1610      C1611   1.411       .  A
C1611      C1612   1.397       .  A
C1611      S1616   1.805       .  S
C1612      H1617   1.084       .  S
C1613      C1614   1.416       .  A
C1614      S1618   1.803       .  S
C1615      C1620   1.406       .  A
S1616      H1632   1.404       .  S
S1618      H1629   1.405       .  S
C1620      C1621   1.399       .  A
C1620      S1625   1.806       .  S
C1621      H1626   1.084       .  S
C1622      C1623   1.417       .  A
C1623      C1624   1.399       .  A
C1623      S1627   1.804       .  S
C1624      H1628   1.085       .  S
S1625      H1630   1.407       .  S
S1627      H1631   1.408       .  S
C1633      C1634   1.401       .  A
C1633      C1638   1.401       .  A
C1633      H1643   1.085       .  S
C1634      C1639   1.477       .  S
C1634      C1635   1.411       .  A
C1635      C1636   1.396       .  A
C1635      S1640   1.804       .  S
C1636      C1637   1.404       .  A
C1636      H1641   1.085       .  S
C1637      C1638   1.416       .  A
C1638      S1642   1.802       .  S
C1639      C1644   1.407       .  A
C1639      C1648   1.399       .  A
S1640      H1656   1.404       .  S
S1642      H1653   1.407       .  S
C1644      C1645   1.402       .  A
C1644      S1649   1.804       .  S
C1645      C1646   1.407       .  A
C1645      H1650   1.083       .  S
C1646      C1647   1.419       .  A
C1647      C1648   1.398       .  A
C1647      S1651   1.802       .  S
C1648      H1652   1.084       .  S
S1649      H1654   1.407       .  S
S1651      H1655   1.408       .  S
C1657      C1662   1.399       .  A
C1657      H1667   1.085       .  S
C1658      C1663   1.476       .  S
C1658      C1659   1.413       .  A
C1659      C1660   1.399       .  A
C1659      S1664   1.807   1_554  S
C1660      C1661   1.404       .  A
C1660      H1665   1.084   1_554  S
C1662      S1666   1.803       .  S
C1663      C1668   1.407   1_554  A
S1664      H1680   1.402       .  S
S1666      H1677   1.406       .  S
C1668      C1669   1.401       .  A
C1668      S1673   1.804       .  S
C1669      C1670   1.404   1_556  A
C1669      H1674   1.083       .  S
C1671      C1672   1.400       .  A
C1671      S1675   1.803       .  S
C1672      H1676   1.085       .  S
S1673      H1678   1.407       .  S
S1675      H1679   1.408       .  S
C1681      C1682   1.400       .  A
C1681      C1686   1.395       .  A
C1681      H1691   1.083       .  S
C1682      C1687   1.474       .  S
C1682      C1683   1.413       .  A
C1683      C1684   1.400       .  A
C1683      S1688   1.806       .  S
C1684      C1685   1.404       .  A
C1684      H1689   1.084       .  S
C1685      C1686   1.413       .  A
C1686      S1690   1.804       .  S
C1687      C1692   1.406       .  A
C1687      C1696   1.400       .  A
S1688      H1704   1.405       .  S
S1690      H1701   1.407       .  S
C1692      C1693   1.400       .  A
C1692      S1697   1.806       .  S
C1693      C1694   1.407       .  A
C1693      H1698   1.081       .  S
C1694      C1695   1.418       .  A
C1695      C1696   1.398       .  A
C1695      S1699   1.803       .  S
C1696      H1700   1.083       .  S
S1697      H1702   1.407       .  S
S1699      H1703   1.408       .  S
C1705      C1710   1.398       .  A
C1705      H1715   1.083       .  S
C1706      C1711   1.478       .  S
C1706      C1707   1.413   1_554  A
C1707      C1708   1.400       .  A
C1707      S1712   1.805       .  S
C1708      C1709   1.404   1_556  A
C1708      H1713   1.083       .  S
C1710      S1714   1.803       .  S
C1711      C1716   1.408   1_554  A
S1712      H1728   1.405       .  S
S1714      H1725   1.407       .  S
C1716      C1717   1.402       .  A
C1716      S1721   1.804       .  S
C1717      C1718   1.406   1_556  A
C1717      H1722   1.083       .  S
C1719      C1720   1.399       .  A
C1719      S1723   1.802       .  S
C1720      H1724   1.085       .  S
S1721      H1726   1.407       .  S
S1723      H1727   1.408       .  S
C1729      C1730   1.401       .  A
C1729      C1734   1.398       .  A
C1729      H1739   1.085       .  S
C1730      C1735   1.476       .  S
C1730      C1731   1.412       .  A
C1731      C1732   1.397       .  A
C1731      S1736   1.804       .  S
C1732      C1733   1.402       .  A
C1732      H1737   1.085       .  S
C1733      C1734   1.414       .  A
C1734      S1738   1.804       .  S
C1735      C1740   1.409       .  A
C1735      C1744   1.400       .  A
S1736      H1752   1.405       .  S
S1738      H1749   1.406       .  S
C1740      C1741   1.401       .  A
C1740      S1745   1.806       .  S
C1741      C1742   1.404       .  A
C1741      H1746   1.083       .  S
C1742      C1743   1.416       .  A
C1743      C1744   1.397       .  A
C1743      S1747   1.803       .  S
C1744      H1748   1.085       .  S
S1745      H1750   1.407       .  S
S1747      H1751   1.405       .  S
C1753      C1758   1.401       .  A
C1753      H1763   1.084       .  S
C1754      C1759   1.476       .  S
C1754      C1755   1.411       .  A
C1755      C1756   1.399       .  A
C1755      S1760   1.805       .  S
C1756      C1757   1.405       .  A
C1756      H1761   1.084       .  S
C1758      S1762   1.803       .  S
C1759      C1764   1.407       .  A
S1760      H1776   1.404       .  S
S1762      H1773   1.406       .  S
C1764      C1765   1.400       .  A
C1764      S1769   1.805       .  S
C1765      C1766   1.404       .  A
C1765      H1770   1.084       .  S
C1767      C1768   1.400       .  A
C1767      S1771   1.804       .  S
C1768      H1772   1.085       .  S
S1769      H1774   1.407       .  S
S1771      H1775   1.407       .  S
C1777      C1778   1.400       .  A
C1777      C1782   1.398       .  A
C1777      H1787   1.085       .  S
C1778      C1783   1.472       .  S
C1778      C1779   1.411       .  A
C1779      C1780   1.396       .  A
C1779      S1784   1.804       .  S
C1780      C1781   1.402       .  A
C1780      H1785   1.085       .  S
C1781      C1782   1.415       .  A
C1782      S1786   1.803       .  S
C1783      C1788   1.407       .  A
C1783      C1792   1.400       .  A
S1784      H1800   1.405       .  S
S1786      H1797   1.406       .  S
C1788      C1789   1.399       .  A
C1788      S1793   1.806       .  S
C1789      C1790   1.406       .  A
C1789      H1794   1.083       .  S
C1790      C1791   1.416       .  A
C1791      C1792   1.397       .  A
C1791      S1795   1.803       .  S
C1792      H1796   1.085       .  S
S1793      H1798   1.407       .  S
S1795      H1799   1.408       .  S
C1801      C1806   1.403       .  A
C1801      H1811   1.085       .  S
C1802      C1807   1.479       .  S
C1802      C1803   1.410   1_554  A
C1803      C1804   1.396       .  A
C1803      S1808   1.803       .  S
C1804      C1805   1.404   1_556  A
C1804      H1809   1.085       .  S
C1806      S1810   1.802       .  S
C1807      C1812   1.409   1_554  A
S1808      H1824   1.404       .  S
S1810      H1821   1.407       .  S
C1812      C1813   1.404       .  A
C1812      S1817   1.806       .  S
C1813      C1814   1.405   1_556  A
C1813      H1818   1.084       .  S
C1815      C1816   1.400       .  A
C1815      S1819   1.803       .  S
C1816      H1820   1.085       .  S
S1817      H1822   1.407       .  S
S1819      H1823   1.407       .  S
