geometry optimzed in LAMMPS
_audit_creation_date              2020-11-30 
_audit_creation_method            'lammps2cif' 
_symmetry_space_group_name_H-M    'P1' 
_symmetry_Int_Tables_number       1 
_symmetry_cell_setting            triclinic 
loop_ 
_symmetry_equiv_pos_as_xyz 
  x,y,z 
_cell_length_a                    39.68097193 
_cell_length_b                    39.74878225842855 
_cell_length_c                    39.720763092421 
_cell_angle_alpha                 89.98979010541986 
_cell_angle_beta                  90.00054243866957 
_cell_angle_gamma                 90.00336197429931 
loop_ 
_atom_site_label 
_atom_site_type_symbol 
_atom_site_fract_x 
_atom_site_fract_y 
_atom_site_fract_z 
_atom_site_charge 
O1          O  0.53776549  0.22800754  0.95940561    -0.73700
O2          O  0.47024829  0.22669476  0.02763075    -0.73700
O3          O  0.46974221  0.22649638  0.95976560    -0.73800
O4          O  0.53811067  0.22844391  0.02754562    -0.73800
O5          O  0.53706507  0.28445299  0.02706003    -0.73800
O6          O  0.46816469  0.28248428  0.95955635    -0.73800
O7          O  0.46877711  0.28264615  0.02783443    -0.73700
O8          O  0.53647175  0.28389945  0.95858013    -0.73800
Ni9        Ni  0.50405768  0.22547700  0.99357100     1.25400
Ni10       Ni  0.50261287  0.28541229  0.99323450     1.25400
C11         C  0.54816612  0.25596877  0.94732268     0.88500
C12         C  0.45830791  0.25429412  0.03917618     0.88400
C13         C  0.45732764  0.25411342  0.94872929     0.88400
C14         C  0.54875348  0.25675800  0.03870638     0.88600
O15         O  0.21965523  0.52994255  0.96637400    -0.73700
O16         O  0.22186162  0.45953598  0.03221910    -0.73700
O17         O  0.22041726  0.52776222  0.03454918    -0.73800
O18         O  0.22131150  0.46202521  0.96372726    -0.73800
O19         O  0.27746883  0.46279252  0.96359739    -0.73800
O20         O  0.27646609  0.52873416  0.03379521    -0.73800
O21         O  0.27795635  0.46050966  0.03188128    -0.73700
O22         O  0.27570375  0.53088035  0.96568340    -0.73800
Ni23       Ni  0.21881782  0.49469603  0.99927292     1.25400
Ni24       Ni  0.27887696  0.49574374  0.99875110     1.25400
C25         C  0.24733427  0.54217463  0.95513030     0.88500
C26         C  0.25016669  0.44855553  0.04321210     0.88400
C27         C  0.24842635  0.53953786  0.04555174     0.88400
C28         C  0.24953377  0.45199939  0.95161298     0.88600
O29         O  0.53477949  0.72586277  0.96908043    -0.73700
O30         O  0.46684320  0.72125711  0.03777761    -0.73700
O31         O  0.46611971  0.72195650  0.96951530    -0.73800
O32         O  0.53500411  0.72474168  0.03687565    -0.73800
O33         O  0.53169224  0.78073790  0.03791092    -0.73800
O34         O  0.46330036  0.77793542  0.96984248    -0.73800
O35         O  0.46380823  0.77711615  0.03798809    -0.73700
O36         O  0.53149515  0.78187590  0.96977917    -0.73800
Ni37       Ni  0.50074801  0.72144010  0.00319956     1.25400
Ni38       Ni  0.49744903  0.78138417  0.00385168     1.25400
C39         C  0.54475705  0.75472379  0.95863667     0.88500
C40         C  0.45439643  0.74860043  0.04962169     0.88400
C41         C  0.45305994  0.74941644  0.95878273     0.88400
C42         C  0.54453211  0.75316860  0.04864508     0.88600
O43         O  0.72169024  0.53778190  0.96628763    -0.73700
O44         O  0.71967556  0.46831288  0.03298751    -0.73700
O45         O  0.71949752  0.53625060  0.03447950    -0.73800
O46         O  0.72182992  0.46968048  0.96491978    -0.73800
O47         O  0.77790594  0.46983181  0.96655835    -0.73800
O48         O  0.77545567  0.53652183  0.03639359    -0.73800
O49         O  0.77564648  0.46842293  0.03483665    -0.73700
O50         O  0.77774092  0.53798938  0.96799872    -0.73800
Ni51       Ni  0.71871887  0.50301916  0.99958179     1.25400
Ni52       Ni  0.77870011  0.50320424  0.00149892     1.25400
C53         C  0.75002201  0.54929442  0.95591374     0.88500
C54         C  0.74727430  0.45692184  0.04517522     0.88400
C55         C  0.74698144  0.54733843  0.04721302     0.88400
C56         C  0.75020448  0.45858127  0.95432069     0.88600
O57         O  0.22051276  0.02881234  0.46462653    -0.73700
O58         O  0.22154328  0.96471250  0.53657421    -0.73700
O59         O  0.22302391  0.03282474  0.53261677    -0.73800
O60         O  0.21904393  0.96079118  0.46844254    -0.73800
O61         O  0.27514567  0.95940642  0.46696599    -0.73800
O62         O  0.27917773  0.03132839  0.53080227    -0.73800
O63         O  0.27764560  0.96358256  0.53493717    -0.73700
O64         O  0.27660606  0.02732471  0.46247968    -0.73800
Ni65       Ni  0.21903151  0.99684715  0.50063643     1.25400
Ni66       Ni  0.27913128  0.99540622  0.49869024     1.25400
C67         C  0.24835772  0.03862812  0.45162277     0.88500
C68         C  0.24972569  0.95347949  0.54762195     0.88400
C69         C  0.25177703  0.04359013  0.54260913     0.88400
C70         C  0.24653685  0.94805002  0.45727464     0.88600
O71         O  0.03282382  0.72112469  0.47050948    -0.73700
O72         O  0.96499062  0.72460913  0.53887073    -0.73700
O73         O  0.96475280  0.72052425  0.47084546    -0.73800
O74         O  0.03295679  0.72531625  0.53876082    -0.73800
O75         O  0.03217998  0.78120637  0.53579970    -0.73800
O76         O  0.96457377  0.77633394  0.46730071    -0.73800
O77         O  0.96420690  0.78046121  0.53535398    -0.73700
O78         O  0.03276434  0.77711344  0.46764004    -0.73800
Ni79       Ni  0.99894609  0.72090488  0.50484862     1.25400
Ni80       Ni  0.99843887  0.78076096  0.50136341     1.25400
C81         C  0.04377764  0.74853972  0.45756996     0.88500
C82         C  0.95347853  0.75311555  0.54861523     0.88400
C83         C  0.95329171  0.74765046  0.45776345     0.88400
C84         C  0.04336216  0.75403060  0.54907084     0.88600
O85         O  0.72144998  0.03492391  0.46599240    -0.73700
O86         O  0.72511877  0.97078364  0.53722520    -0.73700
O87         O  0.72486043  0.03852819  0.53367850    -0.73800
O88         O  0.72192557  0.96697703  0.46944097    -0.73800
O89         O  0.77799285  0.96693381  0.46693937    -0.73800
O90         O  0.78090198  0.03870067  0.53118379    -0.73800
O91         O  0.78118900  0.97061157  0.53498640    -0.73700
O92         O  0.77747425  0.03519104  0.46316384    -0.73800
Ni93       Ni  0.72139358  0.00276960  0.50164280     1.25400
Ni94       Ni  0.78143091  0.00285127  0.49891659     1.25400
C95         C  0.74876550  0.04613851  0.45310956     0.88500
C96         C  0.75355991  0.96033500  0.54821613     0.88400
C97         C  0.75330261  0.05051125  0.54307121     0.88400
C98         C  0.74948400  0.95491726  0.45775515     0.88600
O99         O  0.03574929  0.21544413  0.46059047    -0.73700
O100        O  0.96818216  0.22125701  0.52910211    -0.73700
O101        O  0.96729530  0.21788649  0.46121376    -0.73800
O102        O  0.03618114  0.21911098  0.52881930    -0.73800
O103        O  0.03832442  0.27488263  0.52534831    -0.73800
O104        O  0.96904031  0.27386679  0.45854026    -0.73800
O105        O  0.97053099  0.27723965  0.52663771    -0.73700
O106        O  0.03718396  0.27137317  0.45713044    -0.73800
Ni107      Ni  0.00182266  0.21642130  0.49495827     1.25400
Ni108      Ni  0.00386109  0.27631793  0.49175084     1.25400
C109        C  0.04765352  0.24241516  0.44753291     0.88500
C110        C  0.95863520  0.25019692  0.53955355     0.88400
C111        C  0.95642146  0.24574403  0.44913083     0.88400
C112        C  0.04832861  0.24733162  0.53870555     0.88600
C113        C  0.25114974  0.26170936  0.21585907     0.03000
C114        C  0.27607860  0.23627254  0.21562884     0.03000
C115        C  0.27439017  0.21018514  0.23939112    -0.17500
C116        C  0.24891375  0.20955368  0.26386486     0.03000
C117        C  0.22433261  0.23528560  0.26437388     0.03000
C118        C  0.22540642  0.26075233  0.23994910    -0.17500
H119        H  0.20638034  0.28033335  0.24005517     0.05000
H120        H  0.29335950  0.19055463  0.23922021     0.05000
C121        C  0.72460363  0.25042583  0.22187091     0.03000
C122        C  0.74940727  0.27580250  0.22324912     0.03000
C123        C  0.77372674  0.27510121  0.24880193    -0.17500
C124        C  0.77365511  0.24946685  0.27300149     0.03000
C125        C  0.74844005  0.22432127  0.27198191     0.03000
C126        C  0.72419607  0.22507498  0.24631438    -0.17500
H127        H  0.70451898  0.20615768  0.24566695     0.05000
H128        H  0.79307480  0.29435228  0.24958741     0.05000
C129        C  0.73321578  0.25491181  0.77302147     0.03000
C130        C  0.75920199  0.27920072  0.77398295     0.03000
C131        C  0.78508990  0.27784924  0.75005326    -0.17500
C132        C  0.78560232  0.25282891  0.72520926     0.03000
C133        C  0.75904228  0.22906469  0.72369768     0.03000
C134        C  0.73336161  0.23015930  0.74791529    -0.17500
H135        H  0.71313282  0.21183540  0.74701343     0.05000
H136        H  0.80492914  0.29660378  0.75061731     0.05000
C137        C  0.74617227  0.72443160  0.22998977     0.03000
C138        C  0.72076517  0.74928455  0.23057001     0.03000
C139        C  0.72007417  0.77289995  0.25672612    -0.17500
C140        C  0.74471828  0.77260199  0.28189526     0.03000
C141        C  0.77062157  0.74823145  0.28095812     0.03000
C142        C  0.77080976  0.72410364  0.25520135    -0.17500
H143        H  0.79037383  0.70506706  0.25466159     0.05000
H144        H  0.70046510  0.79189690  0.25726387     0.05000
C145        C  0.74922818  0.73303867  0.78032923     0.03000
C146        C  0.72591135  0.75994382  0.78100189     0.03000
C147        C  0.72745447  0.78477450  0.75595429    -0.17500
C148        C  0.75212013  0.78362816  0.73073616     0.03000
C149        C  0.77542978  0.75671475  0.73007856     0.03000
C150        C  0.77346823  0.73154826  0.75475429    -0.17500
H151        H  0.79110880  0.71071857  0.75419773     0.05000
H152        H  0.70930746  0.80517512  0.75606588     0.05000
C153        C  0.27554729  0.73956231  0.23083672     0.03000
C154        C  0.25059358  0.71418557  0.23061041     0.03000
C155        C  0.22516242  0.71473572  0.25509767    -0.17500
C156        C  0.22395924  0.74034010  0.27933052     0.03000
C157        C  0.24873233  0.76586931  0.27944448     0.03000
C158        C  0.27437352  0.76515051  0.25515197    -0.17500
H159        H  0.29364266  0.78448865  0.25526779     0.05000
H160        H  0.20570839  0.69558104  0.25482428     0.05000
C161        C  0.26982723  0.75140763  0.78210343     0.03000
C162        C  0.24262453  0.72845747  0.78163815     0.03000
C163        C  0.21758710  0.73155187  0.75691995    -0.17500
C164        C  0.21878089  0.75741830  0.73279884     0.03000
C165        C  0.24596488  0.78055610  0.73351832     0.03000
C166        C  0.27106801  0.77723524  0.75807795    -0.17500
H167        H  0.29163811  0.79518846  0.75869273     0.05000
H168        H  0.19739467  0.71320036  0.75606726     0.11400
C169        C  0.27647357  0.25074453  0.77016463     0.03000
C170        C  0.25106356  0.27562547  0.76930356     0.03000
C171        C  0.22581575  0.27391760  0.74471880    -0.17500
C172        C  0.22555638  0.24797233  0.72084591     0.03000
C173        C  0.25060859  0.22267944  0.72208462     0.03000
C174        C  0.27587304  0.22447736  0.74663601    -0.17500
H175        H  0.29507182  0.20508743  0.74762617     0.05000
H176        H  0.20653667  0.29323438  0.74383530     0.05000
C177        C  0.10745241  0.21623364  0.60712688    -0.01300
C178        C  0.12226355  0.24629492  0.61853894     0.07300
C179        C  0.11263728  0.27692221  0.60414747    -0.07300
C180        C  0.08848127  0.27814453  0.57852864     0.04700
C181        C  0.07393012  0.24789263  0.56620089    -0.14500
C182        C  0.08372142  0.21719104  0.58106137    -0.07800
C183        C  0.14835391  0.24649977  0.64510943     0.05700
C184        C  0.18180612  0.25318601  0.63597576    -0.08900
C185        C  0.20721580  0.25434309  0.66033529     0.00700
C186        C  0.19924149  0.24828640  0.69440807     0.00500
C187        C  0.16558516  0.24262282  0.70365111    -0.12500
C188        C  0.14014932  0.24157480  0.67927374     0.01000
C189        C  0.24097330  0.26309225  0.65000385     0.40300
C190        C  0.10577254  0.23613293  0.68984862     0.36900
C191        C  0.11644876  0.18415071  0.62164832     0.36700
C192        C  0.07914509  0.31097832  0.56605864     0.37400
N193        N  0.26799942  0.27026326  0.64173504    -0.43400
N194        N  0.07818293  0.23184962  0.69826090    -0.43800
N195        N  0.07167139  0.33740353  0.55635542    -0.41200
N196        N  0.12362390  0.15849764  0.63342324    -0.42600
H197        H  0.07278804  0.19372487  0.57244981     0.13500
H198        H  0.12392516  0.30006829  0.61324696     0.10000
H199        H  0.18797588  0.25774840  0.60976464     0.11100
H200        H  0.15929293  0.23867227  0.72992964     0.16900
C201        C  0.09720639  0.26395514  0.36903512    -0.01300
C202        C  0.12139639  0.23797387  0.36787619     0.07300
C203        C  0.12144343  0.21337241  0.39321038    -0.07300
C204        C  0.09778743  0.21424855  0.41940983     0.04700
C205        C  0.07347873  0.24028423  0.42059150    -0.14500
C206        C  0.07369763  0.26500343  0.39529652    -0.07800
C207        C  0.14751326  0.23675819  0.34106557     0.05700
C208        C  0.17074556  0.26326995  0.33863286    -0.08900
C209        C  0.19571187  0.26327551  0.31375819     0.00700
C210        C  0.19769388  0.23638782  0.29065032     0.00500
C211        C  0.17452188  0.20980259  0.29310196    -0.12500
C212        C  0.14968265  0.20967888  0.31817298     0.01000
C213        C  0.21966613  0.29061747  0.31306140     0.40300
C214        C  0.12639963  0.18180793  0.31957503     0.36900
C215        C  0.09552334  0.28937232  0.34310387     0.36700
C216        C  0.10006691  0.18897096  0.44543088     0.37400
N217        N  0.23891219  0.31248193  0.31239485    -0.43400
N218        N  0.10781117  0.15940472  0.32076754    -0.43800
N219        N  0.10200497  0.16874615  0.46630683    -0.41200
N220        N  0.09421433  0.30970491  0.32228880    -0.42600
H221        H  0.05506990  0.28497047  0.39571786     0.13500
H222        H  0.14036730  0.19367739  0.39274236     0.10000
H223        H  0.16951998  0.28389338  0.35647036     0.11100
H224        H  0.17588664  0.18910498  0.27537016     0.16900
C225        C  0.82410575  0.27178481  0.35052623    -0.01300
C226        C  0.85050238  0.24808497  0.34914534     0.07300
C227        C  0.85164616  0.22484107  0.32263436    -0.07300
C228        C  0.82703370  0.22517612  0.29739404     0.04700
C229        C  0.80070346  0.24896720  0.29868315    -0.14500
C230        C  0.79961480  0.27227269  0.32516833    -0.07800
C231        C  0.87765616  0.24767934  0.37468767     0.05700
C232        C  0.87790820  0.22225299  0.39911994    -0.08900
C233        C  0.90305207  0.22127941  0.42387157     0.00700
C234        C  0.92899754  0.24571479  0.42382603     0.00500
C235        C  0.92843906  0.27126670  0.39937136    -0.12500
C236        C  0.90303672  0.27245294  0.37498623     0.01000
C237        C  0.90043057  0.19621262  0.45007007     0.40300
C238        C  0.90354810  0.29920396  0.35038810     0.36900
C239        C  0.82142508  0.29533310  0.37806323     0.36700
C240        C  0.82972560  0.20153301  0.26994937     0.37400
N241        N  0.89816399  0.17635018  0.47125969    -0.43400
N242        N  0.90379734  0.32070272  0.33074120    -0.43800
N243        N  0.83194451  0.18269335  0.24785495    -0.41200
N244        N  0.81935639  0.31408874  0.40024588    -0.42600
H245        H  0.77924219  0.29043012  0.32630072     0.13500
H246        H  0.87205484  0.20672532  0.32146951     0.10000
H247        H  0.85800995  0.20353317  0.39920833     0.11100
H248        H  0.94805106  0.29027506  0.39913329     0.16900
C249        C  0.88421619  0.22821214  0.59463418    -0.01300
C250        C  0.88634407  0.25279200  0.62016157     0.07300
C251        C  0.91208505  0.27693816  0.61881546    -0.07300
C252        C  0.93542232  0.27709983  0.59241482     0.04700
C253        C  0.93369334  0.25212974  0.56713125    -0.14500
C254        C  0.90805560  0.22780488  0.56867604    -0.07800
C255        C  0.86177531  0.25385756  0.64829325     0.05700
C256        C  0.85951005  0.22628523  0.67027755    -0.08900
C257        C  0.83581388  0.22591977  0.69637561     0.00700
C258        C  0.81334256  0.25316928  0.70017364     0.00500
C259        C  0.81677569  0.28140492  0.67926105    -0.12500
C260        C  0.84071573  0.28197706  0.65347077     0.01000
C261        C  0.83587311  0.19799329  0.71960951     0.40300
C262        C  0.84256643  0.31132218  0.63212262     0.36900
C263        C  0.85709531  0.20397007  0.59388303     0.36700
C264        C  0.96140664  0.30254790  0.59256153     0.37400
N265        N  0.83613391  0.17566913  0.73831567    -0.43400
N266        N  0.84427087  0.33492846  0.61515337    -0.43800
N267        N  0.98212410  0.32304395  0.59265550    -0.41200
N268        N  0.83523254  0.18471144  0.59320701    -0.42600
H269        H  0.90626627  0.20877108  0.54918784     0.13500
H270        H  0.91393620  0.29572725  0.63853216     0.10000
H271        H  0.87643635  0.20509496  0.66709419     0.11100
H272        H  0.79998291  0.30269355  0.68251066     0.16900
C273        C  0.75979388  0.14391858  0.68112321    -0.01300
C274        C  0.75796930  0.15285346  0.64679320     0.07300
C275        C  0.75430794  0.18680400  0.63791778    -0.07300
C276        C  0.75348201  0.21187519  0.66260129     0.04700
C277        C  0.75729374  0.20314831  0.69683344    -0.14500
C278        C  0.75955360  0.16906038  0.70580115    -0.07800
C279        C  0.75770958  0.12713588  0.61976816     0.05700
C280        C  0.72857726  0.12359468  0.60020402    -0.08900
C281        C  0.72663419  0.09930103  0.57482223     0.00700
C282        C  0.75445897  0.07786270  0.56853692     0.00500
C283        C  0.78403124  0.08221970  0.58762116    -0.12500
C284        C  0.78583598  0.10653613  0.61306600     0.01000
C285        C  0.69587442  0.09757568  0.55549703     0.40300
C286        C  0.81686807  0.11009897  0.63173254     0.36900
C287        C  0.76089779  0.10914325  0.69159281     0.36700
C288        C  0.74713374  0.24611397  0.65230662     0.37400
N289        N  0.67105426  0.09636859  0.54025693    -0.43400
N290        N  0.84169734  0.11290325  0.64675886    -0.43800
N291        N  0.74181090  0.27349632  0.64395850    -0.41200
N292        N  0.76170823  0.08124086  0.69987941    -0.42600
H293        H  0.76151502  0.16215089  0.73214480     0.13500
H294        H  0.75175119  0.19366291  0.61160749     0.10000
H295        H  0.70707941  0.13975164  0.60505477     0.11100
H296        H  0.80569824  0.06622620  0.58308342     0.16900
C297        C  0.77477632  0.10061090  0.37932818    -0.01300
C298        C  0.74681592  0.12222718  0.37574009     0.07300
C299        C  0.71919001  0.11851709  0.39735259    -0.07300
C300        C  0.71914829  0.09403652  0.42263514     0.04700
C301        C  0.74720473  0.07225325  0.42641104    -0.14500
C302        C  0.77476941  0.07595359  0.40448265    -0.07800
C303        C  0.74581716  0.14868162  0.34942030     0.05700
C304        C  0.74805641  0.13911745  0.31551486    -0.08900
C305        C  0.74854138  0.16324837  0.28992674     0.00700
C306        C  0.74643421  0.19772651  0.29813709     0.00500
C307        C  0.74278504  0.20720675  0.33198640    -0.12500
C308        C  0.74275451  0.18309674  0.35761851     0.01000
C309        C  0.75223195  0.15192564  0.25561995     0.40300
C310        C  0.74051202  0.19437874  0.39210520     0.36900
C311        C  0.80408558  0.10377981  0.35799535     0.36700
C312        C  0.69031823  0.09284929  0.44478182     0.37400
N313        N  0.75516712  0.14254102  0.22821127    -0.43400
N314        N  0.73861972  0.20346383  0.41972013    -0.43800
N315        N  0.66706446  0.09210257  0.46234347    -0.41200
N316        N  0.82746909  0.10636929  0.34077724    -0.42600
H317        H  0.79645155  0.05952866  0.40693759     0.13500
H318        H  0.69756805  0.13498342  0.39450906     0.10000
H319        H  0.74983996  0.11265597  0.30907574     0.11100
H320        H  0.74032071  0.23359924  0.33842077     0.16900
C321        C  0.71648102  0.89818221  0.38876683    -0.01300
C322        C  0.74336768  0.87550968  0.38426902     0.07300
C323        C  0.77222985  0.87848582  0.40433397    -0.07300
C324        C  0.77476805  0.90379718  0.42869275     0.04700
C325        C  0.74803439  0.92701605  0.43299181    -0.14500
C326        C  0.71895974  0.92358507  0.41301365    -0.07800
C327        C  0.74255654  0.84914894  0.35801008     0.05700
C328        C  0.76280820  0.85324732  0.32938687    -0.08900
C329        C  0.76352603  0.82865758  0.30423961     0.00700
C330        C  0.74397609  0.79930677  0.30777901     0.00500
C331        C  0.72333988  0.79534573  0.33618490    -0.12500
C332        C  0.72266765  0.81994590  0.36142379     0.01000
C333        C  0.78404357  0.83420821  0.27475720     0.40300
C334        C  0.70211418  0.81444285  0.39091159     0.36900
C335        C  0.68649151  0.89639549  0.36825713     0.36700
C336        C  0.80462442  0.90447452  0.44946944     0.37400
N337        N  0.80032458  0.83867566  0.25100764    -0.43400
N338        N  0.68569375  0.81010612  0.41459778    -0.43800
N339        N  0.82857366  0.90479706  0.46609722    -0.41200
N340        N  0.66239763  0.89505463  0.35189693    -0.42600
H341        H  0.69826807  0.94117694  0.41588669     0.13500
H342        H  0.79281140  0.86082794  0.40097797     0.10000
H343        H  0.77800079  0.87577560  0.32670026     0.11100
H344        H  0.70818572  0.77279089  0.33882140     0.16900
C345        C  0.78205569  0.88848802  0.60414780    -0.01300
C346        C  0.75514808  0.88604996  0.62725595     0.07300
C347        C  0.72856363  0.90915581  0.62530819    -0.07300
C348        C  0.72777694  0.93378206  0.60020723     0.04700
C349        C  0.75427234  0.93582171  0.57638863    -0.14500
C350        C  0.78151476  0.91335436  0.57911218    -0.07800
C351        C  0.75407906  0.85965502  0.65370978     0.05700
C352        C  0.77949414  0.85881217  0.67826106    -0.08900
C353        C  0.77901924  0.83464095  0.70388033     0.00700
C354        C  0.75281467  0.81070638  0.70509046     0.00500
C355        C  0.72705579  0.81190032  0.68096257    -0.12500
C356        C  0.72751721  0.83604101  0.65531931     0.01000
C357        C  0.80517416  0.83542140  0.72909960     0.40300
C358        C  0.70086683  0.83563996  0.63055485     0.36900
C359        C  0.80981268  0.86498856  0.60487714     0.36700
C360        C  0.69970977  0.95693778  0.60009267     0.37400
N361        N  0.82614192  0.83626062  0.74932429    -0.43400
N362        N  0.67946681  0.83545349  0.61075957    -0.43800
N363        N  0.67718994  0.97544124  0.59995595    -0.41200
N364        N  0.83200863  0.84611431  0.60555815    -0.42600
H365        H  0.80199247  0.91456077  0.56106852     0.13500
H366        H  0.70821339  0.90783063  0.64350321     0.10000
H367        H  0.79955824  0.87732813  0.67757492     0.11100
H368        H  0.70689179  0.79349581  0.68184700     0.16900
C369        C  0.11848645  0.77336879  0.40392838    -0.01300
C370        C  0.11942199  0.74722518  0.37998494     0.07300
C371        C  0.09552541  0.72133663  0.38161299    -0.07300
C372        C  0.07063874  0.72120461  0.40656017     0.04700
C373        C  0.06956677  0.74739595  0.43065522    -0.14500
C374        C  0.09352834  0.77338525  0.42883697    -0.07800
C375        C  0.14564771  0.74567094  0.35354717     0.05700
C376        C  0.17001812  0.72019616  0.35543111    -0.08900
C377        C  0.19531154  0.71764805  0.33107174     0.00700
C378        C  0.19610184  0.74061222  0.30406216     0.00500
C379        C  0.17154512  0.76591372  0.30195075    -0.12500
C380        C  0.14641127  0.76866355  0.32649803     0.01000
C381        C  0.22143589  0.69275015  0.33542041     0.40300
C382        C  0.12166699  0.79510537  0.32337107     0.36900
C383        C  0.14334954  0.79990388  0.40395764     0.36700
C384        C  0.04583460  0.69461877  0.40587270     0.37400
N385        N  0.24265497  0.67313192  0.33912440    -0.43400
N386        N  0.10193355  0.81639996  0.32090729    -0.43800
N387        N  0.02597271  0.67330827  0.40511784    -0.41200
N388        N  0.16322453  0.82120617  0.40402911    -0.42600
H389        H  0.09311987  0.79349585  0.44728586     0.13500
H390        H  0.09621302  0.70127545  0.36310505     0.10000
H391        H  0.16962405  0.70269623  0.37638396     0.11100
H392        H  0.17239830  0.78381911  0.28135432     0.16900
C393        C  0.17773451  0.76206377  0.64664091    -0.01300
C394        C  0.14325816  0.76344787  0.65489972     0.07300
C395        C  0.13345340  0.76267933  0.68876048    -0.07300
C396        C  0.15750189  0.76071569  0.71445440     0.04700
C397        C  0.19217707  0.75908006  0.70632381    -0.14500
C398        C  0.20177372  0.75930857  0.67223989    -0.07800
C399        C  0.11696459  0.76221585  0.62854081     0.05700
C400        C  0.09911936  0.73216845  0.62427957    -0.08900
C401        C  0.07493785  0.72886355  0.59890955     0.00700
C402        C  0.06848001  0.75611782  0.57678608     0.00500
C403        C  0.08596488  0.78656120  0.58180718    -0.12500
C404        C  0.10988762  0.78983186  0.60751667     0.01000
C405        C  0.05669730  0.69747715  0.59714741     0.40300
C406        C  0.12620993  0.82192402  0.61236911     0.36900
C407        C  0.18891602  0.76260496  0.61205253     0.36700
C408        C  0.14577682  0.76078369  0.74884135     0.37400
N409        N  0.04214554  0.67226683  0.59604710    -0.43400
N410        N  0.13895494  0.84780835  0.61629753    -0.43800
N411        N  0.13600774  0.76070828  0.77628224    -0.41200
N412        N  0.19779686  0.76323770  0.58431003    -0.42600
H413        H  0.22815593  0.75711309  0.66555978     0.13500
H414        H  0.10686508  0.76341456  0.69507371     0.10000
H415        H  0.10427132  0.71108786  0.64086528     0.11100
H416        H  0.08104785  0.80794896  0.56558581     0.16900
C417        C  0.88497400  0.72349478  0.60801132    -0.01300
C418        C  0.87751453  0.75286965  0.62630255     0.07300
C419        C  0.89519923  0.78255426  0.61941748    -0.07300
C420        C  0.91986316  0.78352696  0.59420565     0.04700
C421        C  0.92738054  0.75405766  0.57549309    -0.14500
C422        C  0.90971034  0.72425768  0.58295615    -0.07800
C423        C  0.85113487  0.75318939  0.65261620     0.05700
C424        C  0.86079722  0.75433040  0.68652852    -0.08900
C425        C  0.83653699  0.75479931  0.71210462     0.00700
C426        C  0.80193189  0.75440497  0.70375300     0.00500
C427        C  0.79238039  0.75279080  0.66974443    -0.12500
C428        C  0.81664925  0.75248722  0.64421214     0.01000
C429        C  0.84771056  0.75668187  0.74665577     0.40300
C430        C  0.80570075  0.75223769  0.60954794     0.36900
C431        C  0.86776833  0.69220871  0.61479739     0.36700
C432        C  0.93723429  0.81499257  0.58878978     0.37400
N433        N  0.85649010  0.75818547  0.77439880    -0.43400
N434        N  0.79707565  0.75209226  0.58171863    -0.43800
N435        N  0.95101893  0.84030302  0.58454378    -0.41200
N436        N  0.85393515  0.66716368  0.62024562    -0.42600
H437        H  0.91501525  0.70139143  0.56904818     0.13500
H438        H  0.88952289  0.80510909  0.63371391     0.10000
H439        H  0.88735347  0.75492403  0.69297073     0.11100
H440        H  0.76587925  0.75211079  0.66314118     0.16900
C441        C  0.88799755  0.77737465  0.39471810    -0.01300
C442        C  0.87509222  0.74695406  0.38213350     0.07300
C443        C  0.88787521  0.71639036  0.39407047    -0.07300
C444        C  0.91341663  0.71568887  0.41841670     0.04700
C445        C  0.92651184  0.74630555  0.43144739    -0.14500
C446        C  0.91339052  0.77687582  0.41911497    -0.07800
C447        C  0.84817574  0.74660210  0.35642098     0.05700
C448        C  0.85665733  0.75279100  0.32273818    -0.08900
C449        C  0.83176857  0.75331866  0.29778693     0.00700
C450        C  0.79777420  0.74757025  0.30656865     0.00500
C451        C  0.78943242  0.74105037  0.34027315    -0.12500
C452        C  0.81429701  0.74076490  0.36522277     0.01000
C453        C  0.84158347  0.76047688  0.26351853     0.40300
C454        C  0.80447344  0.73513424  0.39975566     0.36900
C455        C  0.87512827  0.80938263  0.38326043     0.36700
C456        C  0.92549815  0.68311054  0.42907825     0.37400
N457        N  0.84942841  0.76616065  0.23603846    -0.43400
N458        N  0.79659790  0.73074601  0.42746048    -0.43800
N459        N  0.93506677  0.65690814  0.43746554    -0.41200
N460        N  0.86472059  0.83496730  0.37402587    -0.42600
H461        H  0.92280336  0.80065642  0.42860555     0.13500
H462        H  0.87787265  0.69298122  0.38419431     0.10000
H463        H  0.88274830  0.75742204  0.31603126     0.11100
H464        H  0.76342849  0.73619768  0.34708403     0.16900
C465        C  0.25739021  0.16835538  0.34909280    -0.01300
C466        C  0.24990372  0.13444629  0.34178637     0.07300
C467        C  0.24248252  0.12509479  0.30852583    -0.07300
C468        C  0.24224441  0.14913867  0.28269415     0.04700
C469        C  0.24968616  0.18304586  0.29010599    -0.14500
C470        C  0.25732692  0.19228231  0.32329676    -0.07800
C471        C  0.24900876  0.10874085  0.36884567     0.05700
C472        C  0.22367861  0.11072798  0.39335618    -0.08900
C473        C  0.22288637  0.08822153  0.42045423     0.00700
C474        C  0.24794632  0.06304466  0.42337160     0.00500
C475        C  0.27319280  0.06102989  0.39860197    -0.12500
C476        C  0.27374207  0.08342884  0.37135800     0.01000
C477        C  0.19692926  0.09261883  0.44555879     0.40300
C478        C  0.30027112  0.08042536  0.34666349     0.36900
C479        C  0.26561256  0.17905249  0.38283753     0.36700
C480        C  0.23306786  0.13880424  0.24908175     0.37400
N481        N  0.17612247  0.09626086  0.46564872    -0.43400
N482        N  0.32147121  0.07797206  0.32680769    -0.43800
N483        N  0.22557342  0.13061591  0.22214497    -0.41200
N484        N  0.27217726  0.18754416  0.40991801    -0.42600
H485        H  0.26310853  0.21833314  0.32903357     0.13500
H486        H  0.23638608  0.09910028  0.30289125     0.10000
H487        H  0.20471202  0.13030675  0.39150722     0.11100
H488        H  0.29243448  0.04173206  0.40037209     0.16900
C489        C  0.23079107  0.12271792  0.59113826    -0.01300
C490        C  0.25328202  0.12064966  0.61853379     0.07300
C491        C  0.27599523  0.09373382  0.62038909    -0.07300
C492        C  0.27638651  0.06875319  0.59557803     0.04700
C493        C  0.25326733  0.07024424  0.56852914    -0.14500
C494        C  0.23063026  0.09735320  0.56663886    -0.07800
C495        C  0.25337665  0.14618150  0.64569196     0.05700
C496        C  0.22636648  0.14714501  0.66846425    -0.08900
C497        C  0.22569743  0.17082511  0.69455456     0.00700
C498        C  0.25172304  0.19488781  0.69717544     0.00500
C499        C  0.27934015  0.19300497  0.67519959    -0.12500
C500        C  0.28045403  0.16876543  0.64971367     0.01000
C501        C  0.19910536  0.16886087  0.71927627     0.40300
C502        C  0.30940149  0.16775384  0.62773674     0.36900
C503        C  0.20858668  0.15122379  0.58710419     0.36700
C504        C  0.29986059  0.04123733  0.59929312     0.37400
N505        N  0.17799045  0.16698406  0.73928858    -0.43400
N506        N  0.33270226  0.16673167  0.61025133    -0.43800
N507        N  0.31875039  0.01926782  0.60235796    -0.41200
N508        N  0.19110853  0.17428141  0.58370842    -0.42600
H509        H  0.21315621  0.09897919  0.54569859     0.13500
H510        H  0.29329983  0.09214916  0.64147552     0.10000
H511        H  0.20610346  0.12897458  0.66615209     0.11100
H512        H  0.29978141  0.21096649  0.67760266     0.16900
C513        C  0.27986239  0.90538100  0.62434014    -0.01300
C514        C  0.25341663  0.88223982  0.62954444     0.07300
C515        C  0.22559291  0.88269735  0.60781954    -0.07300
C516        C  0.22370932  0.90557260  0.58109795     0.04700
C517        C  0.25027165  0.92870086  0.57561414    -0.14500
C518        C  0.27821774  0.92811665  0.59741175    -0.07800
C519        C  0.25363923  0.85746194  0.65757097     0.05700
C520        C  0.22797146  0.85909977  0.68184764    -0.08900
C521        C  0.22553521  0.83485195  0.70728833     0.00700
C522        C  0.24903586  0.80828437  0.70864442     0.00500
C523        C  0.27524512  0.80709235  0.68493204    -0.12500
C524        C  0.27746927  0.83113507  0.65923460     0.01000
C525        C  0.19874792  0.83769937  0.73170038     0.40300
C526        C  0.30331577  0.82728079  0.63394163     0.36900
C527        C  0.30853628  0.90682264  0.64667109     0.36700
C528        C  0.19475901  0.90373625  0.55914491     0.37400
N529        N  0.17723633  0.83993914  0.75123914    -0.43400
N530        N  0.32404286  0.82423447  0.61367308    -0.43800
N531        N  0.17150217  0.90210411  0.54163807    -0.41200
N532        N  0.33161777  0.90795373  0.66444486    -0.42600
H533        H  0.29865658  0.94585736  0.59375628     0.13500
H534        H  0.20540282  0.86472637  0.61158712     0.10000
H535        H  0.20955047  0.87922544  0.68064726     0.11100
H536        H  0.29320707  0.78653521  0.68575822     0.16900
C537        C  0.24683699  0.80806151  0.36487247    -0.01300
C538        C  0.24335859  0.84239911  0.35635906     0.07300
C539        C  0.24219739  0.85152371  0.32218046    -0.07300
C540        C  0.24406339  0.82709956  0.29677533     0.04700
C541        C  0.24835580  0.79292650  0.30537801    -0.14500
C542        C  0.25020626  0.78392810  0.33949563    -0.07800
C543        C  0.24289134  0.86912718  0.38268845     0.05700
C544        C  0.26979145  0.87077797  0.40556259    -0.08900
C545        C  0.27109710  0.89564646  0.43042809     0.00700
C546        C  0.24529769  0.92011365  0.43248782     0.00500
C547        C  0.21809402  0.91822489  0.40987249    -0.12500
C548        C  0.21675444  0.89315390  0.38504492     0.01000
C549        C  0.29874907  0.89466751  0.45405762     0.40300
C550        C  0.18817049  0.89248263  0.36255108     0.36900
C551        C  0.24565239  0.79672929  0.39940240     0.36700
C552        C  0.24037927  0.83754049  0.26216490     0.37400
N553        N  0.32087387  0.89375551  0.47302062    -0.43400
N554        N  0.16531868  0.89206535  0.34445014    -0.43800
N555        N  0.23728724  0.84584502  0.23441162    -0.41200
N556        N  0.24444758  0.78755361  0.42702800    -0.42600
H557        H  0.25354077  0.75775316  0.34634931     0.13500
H558        H  0.23979543  0.87781717  0.31531134     0.10000
H559        H  0.29006012  0.85254579  0.40387672     0.11100
H560        H  0.19807010  0.93674713  0.41118373     0.16900
C561        C  0.77884871  0.39329123  0.10903701    -0.01300
C562        C  0.74871966  0.38003377  0.12211306     0.07300
C563        C  0.71779101  0.39209500  0.11030074    -0.07300
C564        C  0.71642328  0.41694841  0.08531968     0.04700
C565        C  0.74673020  0.43029499  0.07167964    -0.14500
C566        C  0.77768877  0.41807642  0.08406252    -0.07800
C567        C  0.74904538  0.35314997  0.14784610     0.05700
C568        C  0.74192789  0.36136009  0.18142695    -0.08900
C569        C  0.74250304  0.33656995  0.20646083     0.00700
C570        C  0.75032052  0.30305127  0.19785955     0.00500
C571        C  0.75739778  0.29489370  0.16423731    -0.12500
C572        C  0.75658659  0.31960313  0.13920620     0.01000
C573        C  0.73400486  0.34576783  0.24058147     0.40300
C574        C  0.76278708  0.30994278  0.10472325     0.36900
C575        C  0.81122649  0.38207342  0.12128159     0.36700
C576        C  0.68346539  0.42797971  0.07455725     0.37400
N577        N  0.72717126  0.35294844  0.26797598    -0.43400
N578        N  0.76762632  0.30226860  0.07704137    -0.43800
N579        N  0.65696154  0.43670568  0.06608154    -0.41200
N580        N  0.83708873  0.37302595  0.13124593    -0.42600
H581        H  0.80124217  0.42790231  0.07433768     0.13500
H582        H  0.69460816  0.38181297  0.12051049     0.10000
H583        H  0.73589066  0.38714405  0.18801521     0.11100
H584        H  0.76315082  0.26907816  0.15753189     0.16900
C585        C  0.77745664  0.60733651  0.11526600    -0.01300
C586        C  0.74720906  0.62169663  0.12692315     0.07300
C587        C  0.71657944  0.61128313  0.11288329    -0.07300
C588        C  0.71563943  0.58712233  0.08720191     0.04700
C589        C  0.74608558  0.57288651  0.07484060    -0.14500
C590        C  0.77672440  0.58329373  0.08948472    -0.07800
C591        C  0.74701903  0.64778538  0.15365340     0.05700
C592        C  0.75985084  0.67989812  0.14641707    -0.08900
C593        C  0.76007217  0.70516004  0.17101269     0.00700
C594        C  0.74726648  0.69834064  0.20340426     0.00500
C595        C  0.73472610  0.66619561  0.21073123    -0.12500
C596        C  0.73432900  0.64100211  0.18611944     0.01000
C597        C  0.77404964  0.73764047  0.16270673     0.40300
C598        C  0.72140633  0.60821662  0.19490457     0.36900
C599        C  0.80947203  0.61635917  0.13000731     0.36700
C600        C  0.68292464  0.57776475  0.07432562     0.37400
N601        N  0.78540407  0.76361334  0.15602544    -0.43400
N602        N  0.71107549  0.58192852  0.20199126    -0.43800
N603        N  0.65663122  0.57030429  0.06415656    -0.41200
N604        N  0.83505281  0.62358533  0.14198418    -0.42600
H605        H  0.80034263  0.57257879  0.08093423     0.13500
H606        H  0.69326072  0.62225329  0.12199584     0.10000
H607        H  0.76968372  0.68517918  0.12149175     0.11100
H608        H  0.72493423  0.66093013  0.23567887     0.16900
C609        C  0.71977376  0.62142789  0.90125413    -0.01300
C610        C  0.74800524  0.62784917  0.88081664     0.07300
C611        C  0.77717127  0.60843617  0.88488501    -0.07300
C612        C  0.77859491  0.58270851  0.90899472     0.04700
C613        C  0.75030434  0.57621053  0.92982656    -0.14500
C614        C  0.72109071  0.59583737  0.92543791    -0.07800
C615        C  0.74768132  0.65470254  0.85496196     0.05700
C616        C  0.76115425  0.68631461  0.86297568    -0.08900
C617        C  0.76191869  0.71212959  0.83897214     0.00700
C618        C  0.74911475  0.70633209  0.80637438     0.00500
C619        C  0.73597951  0.67458522  0.79826631    -0.12500
C620        C  0.73491620  0.64888297  0.82236198     0.01000
C621        C  0.77672425  0.74404849  0.84798072     0.40300
C622        C  0.72075987  0.61673176  0.81313361     0.36900
C623        C  0.68922699  0.64084929  0.89792923     0.36700
C624        C  0.80903100  0.56288006  0.91080483     0.37400
N625        N  0.78873138  0.76959225  0.85514703    -0.43400
N626        N  0.70935711  0.59097767  0.80573434    -0.43800
N627        N  0.83348303  0.54705568  0.91205526    -0.41200
N628        N  0.66464278  0.65628040  0.89537299    -0.42600
H629        H  0.69916951  0.59140142  0.94112586     0.13500
H630        H  0.79881986  0.61326287  0.86891528     0.10000
H631        H  0.77121509  0.69072263  0.88797713     0.11100
H632        H  0.72619142  0.67007004  0.77317544     0.16900
C633        C  0.73082547  0.35539716  0.82356310    -0.01300
C634        C  0.75640704  0.35826205  0.84814376     0.07300
C635        C  0.78353534  0.33555698  0.84746300    -0.07300
C636        C  0.78543412  0.31034370  0.82294496     0.04700
C637        C  0.75921126  0.30674670  0.79923448    -0.14500
C638        C  0.73236520  0.32971099  0.79953612    -0.07800
C639        C  0.75505764  0.38432217  0.87505380     0.05700
C640        C  0.72681678  0.38564511  0.89627415    -0.08900
C641        C  0.72444241  0.40964712  0.92196656     0.00700
C642        C  0.75117345  0.43265123  0.92735999     0.00500
C643        C  0.77964635  0.43094232  0.90635158    -0.12500
C644        C  0.78165228  0.40733869  0.88024412     0.01000
C645        C  0.69459688  0.40933109  0.94277845     0.40300
C646        C  0.81082930  0.40791289  0.85851412     0.36900
C647        C  0.70326098  0.37904272  0.82182604     0.36700
C648        C  0.81438794  0.28834287  0.82278585     0.37400
N649        N  0.67057325  0.40905339  0.95930113    -0.43400
N650        N  0.83419669  0.40828057  0.84108428    -0.43800
N651        N  0.83774668  0.27091792  0.82235108    -0.41200
N652        N  0.68117281  0.39799700  0.82037564    -0.42600
H653        H  0.71266308  0.32769439  0.78072463     0.13500
H654        H  0.80324629  0.33744550  0.86627974     0.10000
H655        H  0.70655216  0.36764873  0.89284729     0.11100
H656        H  0.80021049  0.44856994  0.90987532     0.16900
C657        C  0.62301431  0.73031970  0.09728103    -0.01300
C658        C  0.62109319  0.75231876  0.12500849     0.07300
C659        C  0.59461256  0.77551771  0.12706262    -0.07300
C660        C  0.56962980  0.77661300  0.10224481     0.04700
C661        C  0.57087199  0.75389480  0.07490925    -0.14500
C662        C  0.59769578  0.73090893  0.07277945    -0.07800
C663        C  0.64625519  0.75137211  0.15240035     0.05700
C664        C  0.66879314  0.77830012  0.15583900    -0.08900
C665        C  0.69297207  0.77830206  0.18145025     0.00700
C666        C  0.69470315  0.75094970  0.20402619     0.00500
C667        C  0.67158141  0.72445026  0.20106875    -0.12500
C668        C  0.64748712  0.72440636  0.17543255     0.01000
C669        C  0.71610073  0.80626164  0.18370809     0.40300
C670        C  0.62395345  0.69676773  0.17359173     0.36900
C671        C  0.65120844  0.70770660  0.09305783     0.36700
C672        C  0.54238108  0.80033040  0.10627731     0.37400
N673        N  0.73461169  0.82868157  0.18559356    -0.43400
N674        N  0.60512357  0.67458184  0.17218227    -0.43800
N675        N  0.52063754  0.81942889  0.10964785    -0.41200
N676        N  0.67397758  0.68983666  0.08962417    -0.42600
H677        H  0.59913998  0.71370052  0.05166430     0.13500
H678        H  0.59325338  0.79249948  0.14839886     0.10000
H679        H  0.66763703  0.79917196  0.13827980     0.11100
H680        H  0.67240082  0.70376719  0.21885550     0.16900
C681        C  0.32457278  0.76332357  0.15311196    -0.01300
C682        C  0.35266788  0.74148084  0.15482208     0.07300
C683        C  0.35543377  0.71920932  0.18217939    -0.07300
C684        C  0.33058171  0.71816389  0.20721820     0.04700
C685        C  0.30278811  0.74015766  0.20542950    -0.14500
C686        C  0.30023369  0.76277653  0.17854827    -0.07800
C687        C  0.37966903  0.74234949  0.12876742     0.05700
C688        C  0.39564834  0.77303930  0.12191113    -0.08900
C689        C  0.41951440  0.77591686  0.09618109     0.00700
C690        C  0.42892888  0.74716187  0.07720130     0.00500
C691        C  0.41365312  0.71612929  0.08494935    -0.12500
C692        C  0.38910357  0.71356941  0.11021375     0.01000
C693        C  0.43337201  0.80894799  0.09000922     0.40300
C694        C  0.37324548  0.68135707  0.11582545     0.36900
C695        C  0.31959694  0.78588533  0.12504908     0.36700
C696        C  0.33429702  0.69472442  0.23472684     0.37400
N697        N  0.44405335  0.83558714  0.08504734    -0.43400
N698        N  0.36065383  0.65550213  0.12041584    -0.43800
N699        N  0.33731492  0.67592597  0.25677026    -0.41200
N700        N  0.31569729  0.80401350  0.10258516    -0.42600
H701        H  0.27868957  0.77951631  0.17707895     0.13500
H702        H  0.37713650  0.70274066  0.18406240     0.10000
H703        H  0.38898603  0.79513648  0.13649925     0.11100
H704        H  0.42034676  0.69379395  0.07077913     0.16900
C705        C  0.39788803  0.77526363  0.88541926    -0.01300
C706        C  0.37449891  0.74861899  0.88373682     0.07300
C707        C  0.37682193  0.72214024  0.90694213    -0.07300
C708        C  0.40208991  0.72181445  0.93160008     0.04700
C709        C  0.42582148  0.74838486  0.93317044    -0.14500
C710        C  0.42316513  0.77500826  0.91002264    -0.07800
C711        C  0.34729070  0.74817806  0.85807904     0.05700
C712        C  0.35591480  0.74491240  0.82397875    -0.08900
C713        C  0.33107886  0.74549439  0.79893871     0.00700
C714        C  0.29687449  0.74945794  0.80793590     0.00500
C715        C  0.28830199  0.75258457  0.84208262    -0.12500
C716        C  0.31310179  0.75170505  0.86711947     0.01000
C717        C  0.34125774  0.74173381  0.76423730     0.40300
C718        C  0.30297529  0.75550973  0.90181481     0.36900
C719        C  0.39591119  0.80350714  0.86262965     0.36700
C720        C  0.40199472  0.69470685  0.95581500     0.37400
N721        N  0.34935075  0.73889102  0.73639152    -0.43400
N722        N  0.29481661  0.75851419  0.92962162    -0.43800
N723        N  0.40173773  0.67302893  0.97527079    -0.41200
N724        N  0.39421199  0.82609680  0.84432488    -0.42600
H725        H  0.44102521  0.79564115  0.91100127     0.13500
H726        H  0.35866564  0.70175956  0.90587475     0.10000
H727        H  0.38216796  0.74199814  0.81695151     0.11100
H728        H  0.26219135  0.75629683  0.84916816     0.16900
C729        C  0.59420424  0.78366334  0.88262912    -0.01300
C730        C  0.62243880  0.76218607  0.88355478     0.07300
C731        C  0.62577159  0.73908437  0.91000517    -0.07300
C732        C  0.60092260  0.73632890  0.93484696     0.04700
C733        C  0.57199933  0.75701100  0.93335113    -0.14500
C734        C  0.56932398  0.78100179  0.90750378    -0.07800
C735        C  0.64813381  0.76226288  0.85649657     0.05700
C736        C  0.67068367  0.78931109  0.85379018    -0.08900
C737        C  0.69610968  0.78920944  0.82928330     0.00700
C738        C  0.69893202  0.76175065  0.80685332     0.00500
C739        C  0.67570653  0.73525134  0.80908118    -0.12500
C740        C  0.65077046  0.73506525  0.83387949     0.01000
C741        C  0.71959067  0.81694491  0.82827783     0.40300
C742        C  0.62804831  0.70675498  0.83559894     0.36900
C743        C  0.58979025  0.80791278  0.85593347     0.36700
C744        C  0.60650688  0.71311138  0.96224319     0.37400
N745        N  0.73844493  0.83914495  0.82740314    -0.43400
N746        N  0.60993292  0.68399014  0.83709808    -0.43800
N747        N  0.61135092  0.69456660  0.98417611    -0.41200
N748        N  0.58621656  0.82739706  0.83457878    -0.42600
H749        H  0.54738739  0.79724310  0.90634336     0.13500
H750        H  0.64788660  0.72310133  0.91113023     0.10000
H751        H  0.66877002  0.81020958  0.87127577     0.11100
H752        H  0.67717038  0.71449316  0.79140901     0.16900
C753        C  0.24271012  0.67431787  0.14439785    -0.01300
C754        C  0.24712868  0.63992270  0.15167357     0.07300
C755        C  0.25252529  0.62979038  0.18506951    -0.07300
C756        C  0.25374914  0.65353699  0.21114984     0.04700
C757        C  0.24952099  0.68804854  0.20385303    -0.14500
C758        C  0.24370831  0.69801336  0.17043722    -0.07800
C759        C  0.24692164  0.61428214  0.12457098     0.05700
C760        C  0.27569094  0.61048947  0.10457961    -0.08900
C761        C  0.27659327  0.58693193  0.07839028     0.00700
C762        C  0.24836182  0.56587263  0.07228911     0.00500
C763        C  0.21925324  0.57036049  0.09210067    -0.12500
C764        C  0.21829190  0.59448165  0.11785887     0.01000
C765        C  0.30629091  0.58628268  0.05738126     0.40300
C766        C  0.18739924  0.59932211  0.13643137     0.36900
C767        C  0.23676757  0.68571377  0.11041044     0.36700
C768        C  0.26013934  0.64201324  0.24501291     0.37400
N769        N  0.33003093  0.58603993  0.04045708    -0.43400
N770        N  0.16260406  0.60354894  0.15117263    -0.43800
N771        N  0.26534456  0.63271905  0.27212770    -0.41200
N772        N  0.23198702  0.69471518  0.08311995    -0.42600
H773        H  0.23979820  0.72439644  0.16471723     0.13500
H774        H  0.25609598  0.60332189  0.19067166     0.10000
H775        H  0.29738031  0.62641658  0.10920222     0.11100
H776        H  0.19713025  0.55501426  0.08752864     0.16900
C777        C  0.22940785  0.31387680  0.13937219    -0.01300
C778        C  0.25283568  0.34049936  0.14158104     0.07300
C779        C  0.27549844  0.34141253  0.16870807    -0.07300
C780        C  0.27503197  0.31626647  0.19344866     0.04700
C781        C  0.25158110  0.28970225  0.19117291    -0.14500
C782        C  0.22876185  0.28893704  0.16424453    -0.07800
C783        C  0.25298839  0.36833470  0.11661164     0.05700
C784        C  0.22527668  0.39014539  0.11540658    -0.08900
C785        C  0.22401942  0.41664992  0.09221340     0.00700
C786        C  0.25083095  0.42151112  0.06916143     0.00500
C787        C  0.27890180  0.39990170  0.07090339    -0.12500
C788        C  0.28017424  0.37353062  0.09436940     0.01000
C789        C  0.19552025  0.43919001  0.09377816     0.40300
C790        C  0.30921766  0.35163113  0.09468741     0.36900
C791        C  0.20643231  0.31116466  0.11132711     0.36700
C792        C  0.29825624  0.31856780  0.22131794     0.37400
N793        N  0.17273446  0.45730442  0.09525016    -0.43400
N794        N  0.33247565  0.33406797  0.09503615    -0.43800
N795        N  0.31678907  0.32048285  0.24372934    -0.41200
N796        N  0.18809240  0.30891696  0.08878869    -0.42600
H797        H  0.21092935  0.26834541  0.16229405     0.13500
H798        H  0.29328923  0.36202698  0.17072361     0.10000
H799        H  0.20463587  0.38658637  0.13296366     0.11100
H800        H  0.29972454  0.40325542  0.05354528     0.16900
C801        C  0.27636287  0.35390661  0.81738614    -0.01300
C802        C  0.25181022  0.35476708  0.84308344     0.07300
C803        C  0.22636606  0.33029144  0.84362982    -0.07300
C804        C  0.22551679  0.30468564  0.81948768     0.04700
C805        C  0.25029793  0.30350123  0.79409068    -0.14500
C806        C  0.27546227  0.32830258  0.79314562    -0.07800
C807        C  0.25242731  0.38041207  0.87020383     0.05700
C808        C  0.22697571  0.40484719  0.87120711    -0.08900
C809        C  0.22574086  0.42858938  0.89724940     0.00700
C810        C  0.25006758  0.42773212  0.92326381     0.00500
C811        C  0.27585037  0.40351274  0.92187293    -0.12500
C812        C  0.27711330  0.37987679  0.89573018     0.01000
C813        C  0.20024227  0.45447649  0.89576645     0.40300
C814        C  0.30338627  0.35473129  0.89605240     0.36900
C815        C  0.30250805  0.37908370  0.81536928     0.36700
C816        C  0.20012781  0.27881182  0.82224228     0.37400
N817        N  0.17999566  0.47539639  0.89450052    -0.43400
N818        N  0.32442871  0.33457881  0.89619317    -0.43800
N819        N  0.18002856  0.25783040  0.82441088    -0.41200
N820        N  0.32346948  0.39926747  0.81380030    -0.42600
H821        H  0.29455559  0.32742054  0.77362251     0.13500
H822        H  0.20759583  0.33076941  0.86347670     0.10000
H823        H  0.20814384  0.40546772  0.85141974     0.11100
H824        H  0.29473389  0.40265135  0.94159613     0.16900
C825        C  0.26336033  0.64642864  0.82512273    -0.01300
C826        C  0.24077821  0.64657843  0.85263810     0.07300
C827        C  0.21794572  0.67337288  0.85598483    -0.07300
C828        C  0.21761472  0.69985538  0.83269638     0.04700
C829        C  0.24079005  0.70003793  0.80577559    -0.14500
C830        C  0.26333048  0.67314517  0.80214154    -0.07800
C831        C  0.24182034  0.61992533  0.87898918     0.05700
C832        C  0.27171362  0.61519109  0.89722768    -0.08900
C833        C  0.27417600  0.59040189  0.92217474     0.00700
C834        C  0.24617150  0.56945544  0.92935553     0.00500
C835        C  0.21601159  0.57475323  0.91139688    -0.12500
C836        C  0.21360635  0.59970183  0.88655860     0.01000
C837        C  0.30552226  0.58798445  0.94046952     0.40300
C838        C  0.18208315  0.60363441  0.86881597     0.36900
C839        C  0.28642057  0.61888132  0.81962959     0.36700
C840        C  0.19439216  0.72731881  0.83782533     0.37400
N841        N  0.33070605  0.58625041  0.95506195    -0.43400
N842        N  0.15674076  0.60688441  0.85476481    -0.43800
N843        N  0.17588589  0.74937828  0.84221973    -0.41200
N844        N  0.30487158  0.59678036  0.81518442    -0.42600
H845        H  0.28100885  0.67312893  0.78130981     0.13500
H846        H  0.20081252  0.67393463  0.87724957     0.10000
H847        H  0.29323242  0.63123819  0.89209902     0.11100
H848        H  0.19419615  0.55911991  0.91646651     0.16900
C849        C  0.39068953  0.21798871  0.09564683    -0.01300
C850        C  0.38196328  0.24555533  0.11606142     0.07300
C851        C  0.39843145  0.27640664  0.11149418    -0.07300
C852        C  0.42309185  0.28028446  0.08647981     0.04700
C853        C  0.43193360  0.25259455  0.06577890    -0.14500
C854        C  0.41540567  0.22165295  0.07090026    -0.07800
C855        C  0.35483633  0.24281639  0.14149849     0.05700
C856        C  0.36317737  0.24254849  0.17580326    -0.08900
C857        C  0.33801646  0.23954250  0.20038826     0.00700
C858        C  0.30389731  0.23669669  0.19058265     0.00500
C859        C  0.29583360  0.23614834  0.15618760    -0.12500
C860        C  0.32084104  0.23984314  0.13173130     0.01000
C861        C  0.34771251  0.24035351  0.23542012     0.40300
C862        C  0.31099241  0.24160914  0.09678468     0.36900
C863        C  0.37468124  0.18560667  0.09976451     0.36700
C864        C  0.43889179  0.31282249  0.08308953     0.37400
N865        N  0.35544344  0.24092832  0.26350899    -0.43400
N866        N  0.30319498  0.24321476  0.06876061    -0.43800
N867        N  0.45138573  0.33900075  0.08043331    -0.41200
N868        N  0.36176721  0.15970669  0.10302502    -0.42600
H869        H  0.42157751  0.20009149  0.05535717     0.13500
H870        H  0.39163727  0.29763318  0.12725733     0.10000
H871        H  0.38935820  0.24478281  0.18332556     0.11100
H872        H  0.26978159  0.23349387  0.14843420     0.16900
C873        C  0.59936026  0.22811062  0.11410635    -0.01300
C874        C  0.62168059  0.25522356  0.11912112     0.07300
C875        C  0.62012464  0.28310548  0.09754055    -0.07300
C876        C  0.59677627  0.28428351  0.07110114     0.04700
C877        C  0.57428975  0.25708840  0.06601127    -0.14500
C878        C  0.57599623  0.22923796  0.08778528    -0.07800
C879        C  0.64770726  0.25428095  0.14589608     0.05700
C880        C  0.67290096  0.22955932  0.14429616    -0.08900
C881        C  0.69794032  0.22766527  0.16898583     0.00700
C882        C  0.69799601  0.25087248  0.19579510     0.00500
C883        C  0.67296680  0.27572125  0.19735523    -0.12500
C884        C  0.64790232  0.27762495  0.17265423     0.01000
C885        C  0.72399330  0.20256991  0.16556645     0.40300
C886        C  0.62232274  0.30326061  0.17566809     0.36900
C887        C  0.59966503  0.19905411  0.13595041     0.36700
C888        C  0.59761904  0.31300760  0.04885675     0.37400
N889        N  0.74491600  0.18254067  0.16244607    -0.43400
N890        N  0.60185686  0.32384787  0.17816032    -0.43800
N891        N  0.59846888  0.33601331  0.03101199    -0.41200
N892        N  0.60001613  0.17575614  0.15342349    -0.42600
H893        H  0.55877871  0.20830371  0.08447652     0.13500
H894        H  0.63767375  0.30374798  0.10102424     0.10000
H895        H  0.67312736  0.21188760  0.12348931     0.11100
H896        H  0.67309704  0.29366463  0.21792919     0.16900
C897        C  0.64698612  0.26781782  0.81122466    -0.01300
C898        C  0.65242215  0.25805430  0.84490897     0.07300
C899        C  0.68430622  0.24642016  0.85473388    -0.07300
C900        C  0.71084773  0.24487136  0.83159292     0.04700
C901        C  0.70553582  0.25503382  0.79800845    -0.14500
C902        C  0.67350020  0.26612927  0.78802833    -0.07800
C903        C  0.62489250  0.25824471  0.87006817     0.05700
C904        C  0.61076263  0.22751351  0.87974851    -0.08900
C905        C  0.58539918  0.22605868  0.90416830     0.00700
C906        C  0.57412479  0.25602849  0.92012142     0.00500
C907        C  0.58821534  0.28690308  0.90981817    -0.12500
C908        C  0.61323180  0.28819993  0.88494255     0.01000
C909        C  0.57132991  0.19336410  0.91155863     0.40300
C910        C  0.62689449  0.32046955  0.87537775     0.36900
C911        C  0.61433474  0.27908080  0.79985909     0.36700
C912        C  0.74304901  0.23206108  0.84261267     0.37400
N913        N  0.56007793  0.16710127  0.91723052    -0.43400
N914        N  0.63768050  0.34637831  0.86762266    -0.43800
N915        N  0.76880227  0.22165849  0.85146968    -0.41200
N916        N  0.58815681  0.28810563  0.79073514    -0.42600
H917        H  0.66936867  0.27381633  0.76215488     0.13500
H918        H  0.68837482  0.23843939  0.88053056     0.10000
H919        H  0.61955431  0.20449863  0.86796590     0.11100
H920        H  0.57992015  0.31019381  0.92134955     0.16900
C921        C  0.31841983  0.24999261  0.85556188    -0.01300
C922        C  0.35278667  0.25294190  0.84695992     0.07300
C923        C  0.36205795  0.25469370  0.81290262    -0.07300
C924        C  0.33761651  0.25396041  0.78752820     0.04700
C925        C  0.30325232  0.25110244  0.79617302    -0.14500
C926        C  0.29406057  0.24877418  0.83019566    -0.07800
C927        C  0.37946324  0.25375086  0.87308585     0.05700
C928        C  0.38342900  0.22587672  0.89432566    -0.08900
C929        C  0.40822377  0.22553712  0.91934893     0.00700
C930        C  0.43019342  0.25337809  0.92302560     0.00500
C931        C  0.42593847  0.28139436  0.90179597    -0.12500
C932        C  0.40083726  0.28179520  0.87703505     0.01000
C933        C  0.40940487  0.19688451  0.94168969     0.40300
C934        C  0.39686997  0.31156257  0.85654629     0.36900
C935        C  0.30746185  0.24905553  0.89021027     0.36700
C936        C  0.34829816  0.25685505  0.75289162     0.37400
N937        N  0.41020045  0.17400264  0.95969584    -0.43400
N938        N  0.39349141  0.33536479  0.84010445    -0.43800
N939        N  0.35677560  0.25908777  0.72510333    -0.41200
N940        N  0.29865118  0.24835682  0.91797289    -0.42600
H941        H  0.26771839  0.24618322  0.83694629     0.13500
H942        H  0.38847209  0.25671940  0.80617777     0.10000
H943        H  0.36686882  0.20434813  0.89145017     0.11100
H944        H  0.44234560  0.30305608  0.90441677     0.16900
loop_ 
_geom_bond_atom_site_label_1 
_geom_bond_atom_site_label_2 
_geom_bond_distance 
_geom_bond_site_symmetry_2 
_ccdc_geom_bond_type 
O1           Ni9   1.908       .  S
O1           C11   1.279       .  A
O2           Ni9   1.906   1_554  S
O2           C12   1.280       .  A
O3           Ni9   1.913       .  S
O3           C13   1.281       .  A
O4           Ni9   1.913   1_554  S
O4           C14   1.281       .  A
O5          Ni10   1.917   1_554  S
O5           C14   1.281       .  A
O6          Ni10   1.916       .  S
O6           C13   1.281       .  A
O7          Ni10   1.924   1_554  S
O7           C12   1.283       .  A
O8          Ni10   1.924       .  S
O8           C11   1.284       .  A
Ni9         Ni10   2.383       .  S
C11         C906   1.493       .  S
C12         C853   1.489       .  S
C13         C930   1.484       .  S
C14         C877   1.484       .  S
O15         Ni23   1.916       .  S
O15          C25   1.281       .  A
O16         Ni23   1.918   1_554  S
O16          C26   1.282       .  A
O17         Ni23   1.922   1_554  S
O17          C27   1.283       .  A
O18         Ni23   1.921       .  S
O18          C28   1.282       .  A
O19         Ni24   1.915       .  S
O19          C28   1.280       .  A
O20         Ni24   1.915   1_554  S
O20          C27   1.281       .  A
O21         Ni24   1.922   1_554  S
O21          C26   1.282       .  A
O22         Ni24   1.921       .  S
O22          C25   1.282       .  A
Ni23        Ni24   2.384       .  S
C25         C834   1.492       .  S
C26         C786   1.489       .  S
C27         C762   1.491       .  S
C28         C810   1.483       .  S
O29         Ni37   1.921   1_556  S
O29          C39   1.282       .  A
O30         Ni37   1.923       .  S
O30          C40   1.283       .  A
O31         Ni37   1.918   1_556  S
O31          C41   1.281       .  A
O32         Ni37   1.912       .  S
O32          C42   1.280       .  A
O33         Ni38   1.918       .  S
O33          C42   1.281       .  A
O34         Ni38   1.918   1_556  S
O34          C41   1.282       .  A
O35         Ni38   1.910       .  S
O35          C40   1.280       .  A
O36         Ni38   1.912   1_556  S
O36          C39   1.280       .  A
Ni37        Ni38   2.386       .  S
C39         C733   1.478       .  S
C40         C690   1.492       .  S
C41         C709   1.485       .  S
C42         C661   1.477       .  S
O43         Ni51   1.916       .  S
O43          C53   1.282       .  A
O44         Ni51   1.914   1_554  S
O44          C54   1.280       .  A
O45         Ni51   1.915   1_554  S
O45          C55   1.280       .  A
O46         Ni51   1.915       .  S
O46          C56   1.281       .  A
O47         Ni52   1.920   1_556  S
O47          C56   1.282       .  A
O48         Ni52   1.922       .  S
O48          C55   1.283       .  A
O49         Ni52   1.918       .  S
O49          C54   1.283       .  A
O50         Ni52   1.919   1_556  S
O50          C53   1.281       .  A
Ni51        Ni52   2.381   1_556  S
C53         C613   1.489       .  S
C54         C565   1.493       .  S
C55         C589   1.496       .  S
C56         C642   1.487       .  S
O57         Ni65   1.914   1_545  S
O57          C67   1.281       .  A
O58         Ni65   1.918       .  S
O58          C68   1.282       .  A
O59         Ni65   1.919   1_545  S
O59          C69   1.282       .  A
O60         Ni65   1.921       .  S
O60          C70   1.282       .  A
O61         Ni66   1.913       .  S
O61          C70   1.281       .  A
O62         Ni66   1.915   1_545  S
O62          C69   1.281       .  A
O63         Ni66   1.917       .  S
O63          C68   1.282       .  A
O64         Ni66   1.920   1_545  S
O64          C67   1.282       .  A
Ni65        Ni66   2.387       .  S
C67         C474   1.484       .  S
C68         C517   1.485       .  S
C69         C493   1.479       .  S
C70         C546   1.485       .  S
O71         Ni79   1.915   1_455  S
O71          C81   1.281       .  A
O72         Ni79   1.914       .  S
O72          C82   1.282       .  A
O73         Ni79   1.915       .  S
O73          C83   1.280       .  A
O74         Ni79   1.915   1_455  S
O74          C84   1.281       .  A
O75         Ni80   1.914   1_455  S
O75          C84   1.281       .  A
O76         Ni80   1.915       .  S
O76          C83   1.282       .  A
O77         Ni80   1.915       .  S
O77          C82   1.281       .  A
O78         Ni80   1.916   1_455  S
O78          C81   1.281       .  A
Ni79        Ni80   2.383       .  S
C81         C373   1.481       .  S
C82         C421   1.488       .  S
C83         C445   1.492       .  S
C84         C402   1.487       .  S
O85         Ni93   1.907       .  S
O85          C95   1.279       .  A
O86         Ni93   1.907   1_565  S
O86          C96   1.279       .  A
O87         Ni93   1.913       .  S
O87          C97   1.281       .  A
O88         Ni93   1.913   1_565  S
O88          C98   1.281       .  A
O89         Ni94   1.916   1_565  S
O89          C98   1.281       .  A
O90         Ni94   1.917       .  S
O90          C97   1.282       .  A
O91         Ni94   1.922   1_565  S
O91          C96   1.283       .  A
O92         Ni94   1.922       .  S
O92          C95   1.283       .  A
Ni93        Ni94   2.385       .  S
C95         C301   1.485       .  S
C96         C349   1.484       .  S
C97         C282   1.486       .  S
C98         C325   1.484       .  S
O99        Ni107   1.918       .  S
O99         C109   1.281       .  A
O100       Ni107   1.913   1_655  S
O100        C110   1.280       .  A
O101       Ni107   1.918   1_655  S
O101        C111   1.282       .  A
O102       Ni107   1.918       .  S
O102        C112   1.283       .  A
O103       Ni108   1.912       .  S
O103        C112   1.280       .  A
O104       Ni108   1.913   1_655  S
O104        C111   1.281       .  A
O105       Ni108   1.916   1_655  S
O105        C110   1.281       .  A
O106       Ni108   1.918       .  S
O106        C109   1.282       .  A
Ni107      Ni108   2.386       .  S
C109        C205   1.484       .  S
C110        C253   1.478       .  S
C111        C234   1.481       .  S
C112        C181   1.492       .  S
C113        C781   1.483       .  S
C113        C114   1.415       .  A
C113        C118   1.400       .  A
C114        C858   1.486       .  S
C114        C115   1.404       .  A
C115        C116   1.403       .  A
C115        H120   1.084       .  S
C116        C469   1.482       .  S
C116        C117   1.414       .  A
C117        C210   1.486       .  S
C117        C118   1.403       .  A
C118        H119   1.084       .  S
C121        C882   1.479       .  S
C121        C122   1.410       .  A
C121        C126   1.399       .  A
C122        C570   1.480       .  S
C122        C123   1.401       .  A
C123        C124   1.401       .  A
C123        H128   1.084       .  S
C124        C229   1.481       .  S
C124        C125   1.415       .  A
C125        C306   1.484       .  S
C125        C126   1.402       .  A
C126        H127   1.084       .  S
C129        C901   1.480       .  S
C129        C130   1.413       .  A
C129        C134   1.401       .  A
C130        C637   1.485       .  S
C130        C131   1.401       .  A
C131        C132   1.401       .  A
C131        H136   1.084       .  S
C132        C258   1.483       .  S
C132        C133   1.417       .  A
C133        C277   1.485       .  S
C133        C134   1.402       .  A
C134        H135   1.084       .  S
C137        C594   1.481       .  S
C137        C138   1.412       .  A
C137        C142   1.400       .  A
C138        C666   1.478       .  S
C138        C139   1.401       .  A
C139        C140   1.399       .  A
C139        H144   1.085       .  S
C140        C330   1.478       .  S
C140        C141   1.413       .  A
C141        C450   1.482       .  S
C141        C142   1.402       .  A
C142        H143   1.084       .  S
C145        C618   1.482       .  S
C145        C146   1.414       .  A
C145        C150   1.400       .  A
C146        C738   1.485       .  S
C146        C147   1.403       .  A
C147        C148   1.401       .  A
C147        H152   1.085       .  S
C148        C354   1.482       .  S
C148        C149   1.414       .  A
C149        C426   1.486       .  S
C149        C150   1.403       .  A
C150        H151   1.084       .  S
C153        C685   1.479       .  S
C153        C154   1.413       .  A
C153        C158   1.404       .  A
C154        C757   1.487       .  S
C154        C155   1.402       .  A
C155        C156   1.402       .  A
C155        H160   1.084       .  S
C156        C378   1.479       .  S
C156        C157   1.413       .  A
C157        C541   1.489       .  S
C157        C158   1.403       .  A
C158        H159   1.084       .  S
C161        C714   1.487       .  S
C161        C162   1.413       .  A
C161        C166   1.402       .  A
C162        C829   1.483       .  S
C162        C163   1.402       .  A
C163        C164   1.406       .  A
C163        H168   1.084       .  S
C164        C397   1.492       .  S
C164        C165   1.418       .  A
C165        C522   1.485       .  S
C165        C166   1.400       .  A
C166        H167   1.084       .  S
C169        C925   1.482       .  S
C169        C170   1.413       .  A
C169        C174   1.402       .  A
C170        C805   1.483       .  S
C170        C171   1.401       .  A
C171        C172   1.401       .  A
C171        H176   1.084       .  S
C172        C186   1.481       .  S
C172        C173   1.415       .  A
C173        C498   1.484       .  S
C173        C174   1.400       .  A
C174        H175   1.084       .  S
C177        C178   1.407       .  A
C177        C182   1.400       .  A
C177        C191   1.444       .  S
C178        C183   1.478       .  S
C178        C179   1.398       .  A
C179        C180   1.399       .  A
C179        H198   1.085       .  S
C180        C181   1.421       .  A
C180        C192   1.444       .  S
C181        C182   1.410       .  A
C182        H197   1.084       .  S
C183        C184   1.402       .  A
C183        C188   1.409       .  A
C184        C185   1.398       .  A
C184        H199   1.085       .  S
C185        C186   1.411       .  A
C185        C189   1.443       .  S
C186        C187   1.403       .  A
C187        C188   1.399       .  A
C187        H200   1.085       .  S
C188        C190   1.444       .  S
C189        N193   1.157       .  T
C190        N194   1.157       .  T
C191        N196   1.157       .  T
C192        N195   1.157       .  T
C201        C202   1.411       .  A
C201        C206   1.400       .  A
C201        C215   1.444       .  S
C202        C207   1.487       .  S
C202        C203   1.403       .  A
C203        C204   1.402       .  A
C203        H222   1.085       .  S
C204        C205   1.416       .  A
C204        C216   1.444       .  S
C205        C206   1.405       .  A
C206        H221   1.085       .  S
C207        C208   1.403       .  A
C207        C212   1.412       .  A
C208        C209   1.399       .  A
C208        H223   1.085       .  S
C209        C210   1.411       .  A
C209        C213   1.444       .  S
C210        C211   1.404       .  A
C211        C212   1.401       .  A
C211        H224   1.084       .  S
C212        C214   1.444       .  S
C213        N217   1.157       .  T
C214        N218   1.157       .  T
C215        N220   1.157       .  T
C216        N219   1.157       .  T
C225        C226   1.410       .  A
C225        C230   1.400       .  A
C225        C239   1.444       .  S
C226        C231   1.480       .  S
C226        C227   1.402       .  A
C227        C228   1.400       .  A
C227        H246   1.085       .  S
C228        C229   1.410       .  A
C228        C240   1.443       .  S
C229        C230   1.403       .  A
C230        H245   1.085       .  S
C231        C232   1.401       .  A
C231        C236   1.409       .  A
C232        C233   1.401       .  A
C232        H247   1.085       .  S
C233        C234   1.415       .  A
C233        C237   1.444       .  S
C234        C235   1.405       .  A
C235        C236   1.399       .  A
C235        H248   1.085       .  S
C236        C238   1.444       .  S
C237        N241   1.157       .  T
C238        N242   1.157       .  T
C239        N244   1.157       .  T
C240        N243   1.157       .  T
C249        C250   1.411       .  A
C249        C254   1.399       .  A
C249        C263   1.445       .  S
C250        C255   1.484       .  S
C250        C251   1.403       .  A
C251        C252   1.399       .  A
C251        H270   1.085       .  S
C252        C253   1.414       .  A
C252        C264   1.444       .  S
C253        C254   1.405       .  A
C254        H269   1.085       .  S
C255        C256   1.404       .  A
C255        C260   1.411       .  A
C256        C257   1.400       .  A
C256        H271   1.085       .  S
C257        C258   1.411       .  A
C257        C261   1.443       .  S
C258        C259   1.403       .  A
C259        C260   1.397       .  A
C259        H272   1.085       .  S
C260        C262   1.444       .  S
C261        N265   1.157       .  T
C262        N266   1.157       .  T
C263        N268   1.157       .  T
C264        N267   1.157       .  T
C273        C274   1.411       .  A
C273        C278   1.400       .  A
C273        C287   1.444       .  S
C274        C279   1.482       .  S
C274        C275   1.402       .  A
C275        C276   1.399       .  A
C275        H294   1.085       .  S
C276        C277   1.411       .  A
C276        C288   1.443       .  S
C277        C278   1.404       .  A
C278        H293   1.085       .  S
C279        C280   1.400       .  A
C279        C284   1.410       .  A
C280        C281   1.398       .  A
C280        H295   1.085       .  S
C281        C282   1.417       .  A
C281        C285   1.444       .  S
C282        C283   1.408       .  A
C283        C284   1.400       .  A
C283        H296   1.084       .  S
C284        C286   1.444       .  S
C285        N289   1.157       .  T
C286        N290   1.157       .  T
C287        N292   1.157       .  T
C288        N291   1.157       .  T
C297        C298   1.411       .  A
C297        C302   1.399       .  A
C297        C311   1.444       .  S
C298        C303   1.483       .  S
C298        C299   1.400       .  A
C299        C300   1.398       .  A
C299        H318   1.085       .  S
C300        C301   1.418       .  A
C300        C312   1.444       .  S
C301        C302   1.406       .  A
C302        H317   1.084       .  S
C303        C304   1.402       .  A
C303        C308   1.411       .  A
C304        C305   1.398       .  A
C304        H319   1.085       .  S
C305        C306   1.411       .  A
C305        C309   1.443       .  S
C306        C307   1.404       .  A
C307        C308   1.398       .  A
C307        H320   1.084       .  S
C308        C310   1.444       .  S
C309        N313   1.157       .  T
C310        N314   1.157       .  T
C311        N316   1.157       .  T
C312        N315   1.157       .  T
C321        C322   1.408       .  A
C321        C326   1.399       .  A
C321        C335   1.444       .  S
C322        C327   1.479       .  S
C322        C323   1.400       .  A
C323        C324   1.400       .  A
C323        H342   1.085       .  S
C324        C325   1.416       .  A
C324        C336   1.444       .  S
C325        C326   1.407       .  A
C326        H341   1.085       .  S
C327        C328   1.402       .  A
C327        C332   1.410       .  A
C328        C329   1.398       .  A
C328        H343   1.085       .  S
C329        C330   1.408       .  A
C329        C333   1.443       .  S
C330        C331   1.403       .  A
C331        C332   1.401       .  A
C331        H344   1.085       .  S
C332        C334   1.444       .  S
C333        N337   1.157       .  T
C334        N338   1.157       .  T
C335        N340   1.157       .  T
C336        N339   1.157       .  T
C345        C346   1.411       .  A
C345        C350   1.402       .  A
C345        C359   1.445       .  S
C346        C351   1.485       .  S
C346        C347   1.401       .  A
C347        C348   1.397       .  A
C347        H366   1.085       .  S
C348        C349   1.417       .  A
C348        C360   1.445       .  S
C349        C350   1.406       .  A
C350        H365   1.085       .  S
C351        C352   1.403       .  A
C351        C356   1.413       .  A
C352        C353   1.400       .  A
C352        H367   1.085       .  S
C353        C354   1.410       .  A
C353        C357   1.443       .  S
C354        C355   1.402       .  A
C355        C356   1.399       .  A
C355        H368   1.085       .  S
C356        C358   1.444       .  S
C357        N361   1.157       .  T
C358        N362   1.157       .  T
C359        N364   1.157       .  T
C360        N363   1.157       .  T
C369        C370   1.409       .  A
C369        C374   1.400       .  A
C369        C383   1.444       .  S
C370        C375   1.480       .  S
C370        C371   1.401       .  A
C371        C372   1.399       .  A
C371        H390   1.085       .  S
C372        C373   1.415       .  A
C372        C384   1.444       .  S
C373        C374   1.406       .  A
C374        H389   1.085       .  S
C375        C376   1.402       .  A
C375        C380   1.411       .  A
C376        C377   1.398       .  A
C376        H391   1.085       .  S
C377        C378   1.409       .  A
C377        C381   1.444       .  S
C378        C379   1.403       .  A
C379        C380   1.399       .  A
C379        H392   1.085       .  S
C380        C382   1.444       .  S
C381        N385   1.157       .  T
C382        N386   1.157       .  T
C383        N388   1.157       .  T
C384        N387   1.157       .  T
C393        C394   1.408       .  A
C393        C398   1.398       .  A
C393        C407   1.444       .  S
C394        C399   1.479       .  S
C394        C395   1.400       .  A
C395        C396   1.399       .  A
C395        H414   1.085       .  S
C396        C397   1.415       .  A
C396        C408   1.443       .  S
C397        C398   1.406       .  A
C398        H413   1.084       .  S
C399        C400   1.399       .  A
C399        C404   1.407       .  A
C400        C401   1.398       .  A
C400        H415   1.085       .  S
C401        C402   1.418       .  A
C401        C405   1.444       .  S
C402        C403   1.409       .  A
C403        C404   1.400       .  A
C403        H416   1.084       .  S
C404        C406   1.444       .  S
C405        N409   1.157       .  T
C406        N410   1.157       .  T
C407        N412   1.157       .  T
C408        N411   1.157       .  T
C417        C418   1.407       .  A
C417        C422   1.398       .  A
C417        C431   1.444       .  S
C418        C423   1.479       .  S
C418        C419   1.400       .  A
C419        C420   1.401       .  A
C419        H438   1.085       .  S
C420        C421   1.419       .  A
C420        C432   1.444       .  S
C421        C422   1.408       .  A
C422        H437   1.084       .  S
C423        C424   1.401       .  A
C423        C428   1.409       .  A
C424        C425   1.400       .  A
C424        H439   1.085       .  S
C425        C426   1.413       .  A
C425        C429   1.444       .  S
C426        C427   1.404       .  A
C427        C428   1.399       .  A
C427        H440   1.084       .  S
C428        C430   1.444       .  S
C429        N433   1.157       .  T
C430        N434   1.157       .  T
C431        N436   1.157       .  T
C432        N435   1.157       .  T
C441        C442   1.405       .  A
C441        C446   1.398       .  A
C441        C455   1.444       .  S
C442        C447   1.478       .  S
C442        C443   1.399       .  A
C443        C444   1.401       .  A
C443        H462   1.085       .  S
C444        C445   1.421       .  A
C444        C456   1.444       .  S
C445        C446   1.410       .  A
C446        H461   1.084       .  S
C447        C448   1.401       .  A
C447        C452   1.408       .  A
C448        C449   1.399       .  A
C448        H463   1.085       .  S
C449        C450   1.412       .  A
C449        C453   1.444       .  S
C450        C451   1.403       .  A
C451        C452   1.398       .  A
C451        H464   1.084       .  S
C452        C454   1.443       .  S
C453        N457   1.157       .  T
C454        N458   1.157       .  T
C455        N460   1.157       .  T
C456        N459   1.158       .  T
C465        C466   1.410       .  A
C465        C470   1.398       .  A
C465        C479   1.444       .  S
C466        C471   1.483       .  S
C466        C467   1.404       .  A
C467        C468   1.402       .  A
C467        H486   1.085       .  S
C468        C469   1.411       .  A
C468        C480   1.444       .  S
C469        C470   1.402       .  A
C470        H485   1.085       .  S
C471        C472   1.402       .  A
C471        C476   1.409       .  A
C472        C473   1.400       .  A
C472        H487   1.085       .  S
C473        C474   1.416       .  A
C473        C477   1.444       .  S
C474        C475   1.406       .  A
C475        C476   1.401       .  A
C475        H488   1.085       .  S
C476        C478   1.444       .  S
C477        N481   1.157       .  T
C478        N482   1.157       .  T
C479        N484   1.157       .  T
C480        N483   1.157       .  T
C489        C490   1.410       .  A
C489        C494   1.401       .  A
C489        C503   1.444       .  S
C490        C495   1.481       .  S
C490        C491   1.401       .  A
C491        C492   1.399       .  A
C491        H510   1.085       .  S
C492        C493   1.414       .  A
C492        C504   1.444       .  S
C493        C494   1.405       .  A
C494        H509   1.085       .  S
C495        C496   1.403       .  A
C495        C500   1.409       .  A
C496        C497   1.400       .  A
C496        H511   1.085       .  S
C497        C498   1.411       .  A
C497        C501   1.444       .  S
C498        C499   1.403       .  A
C499        C500   1.398       .  A
C499        H512   1.085       .  S
C500        C502   1.443       .  S
C501        N505   1.157       .  T
C502        N506   1.157       .  T
C503        N508   1.157       .  T
C504        N507   1.157       .  T
C513        C514   1.411       .  A
C513        C518   1.402       .  A
C513        C527   1.444       .  S
C514        C519   1.486       .  S
C514        C515   1.401       .  A
C515        C516   1.399       .  A
C515        H534   1.084       .  S
C516        C517   1.415       .  A
C516        C528   1.444       .  S
C517        C518   1.407       .  A
C518        H533   1.084       .  S
C519        C520   1.404       .  A
C519        C524   1.412       .  A
C520        C521   1.400       .  A
C520        H535   1.085       .  S
C521        C522   1.410       .  A
C521        C525   1.443       .  S
C522        C523   1.404       .  A
C523        C524   1.401       .  A
C523        H536   1.085       .  S
C524        C526   1.444       .  S
C525        N529   1.157       .  T
C526        N530   1.157       .  T
C527        N532   1.157       .  T
C528        N531   1.157       .  T
C537        C538   1.413       .  A
C537        C542   1.398       .  A
C537        C551   1.444       .  S
C538        C543   1.491       .  S
C538        C539   1.406       .  A
C539        C540   1.402       .  A
C539        H558   1.084       .  S
C540        C541   1.411       .  A
C540        C552   1.443       .  S
C541        C542   1.403       .  A
C542        H557   1.084       .  S
C543        C544   1.403       .  A
C543        C548   1.413       .  A
C544        C545   1.398       .  A
C544        H559   1.085       .  S
C545        C546   1.414       .  A
C545        C549   1.444       .  S
C546        C547   1.406       .  A
C547        C548   1.403       .  A
C547        H560   1.085       .  S
C548        C550   1.444       .  S
C549        N553   1.157       .  T
C550        N554   1.157       .  T
C551        N556   1.157       .  T
C552        N555   1.157       .  T
C561        C562   1.406       .  A
C561        C566   1.399       .  A
C561        C575   1.444       .  S
C562        C567   1.479       .  S
C562        C563   1.399       .  A
C563        C564   1.401       .  A
C563        H582   1.085       .  S
C564        C565   1.422       .  A
C564        C576   1.444       .  S
C565        C566   1.410       .  A
C566        H581   1.084       .  S
C567        C568   1.402       .  A
C567        C572   1.409       .  A
C568        C569   1.400       .  A
C568        H583   1.085       .  S
C569        C570   1.410       .  A
C569        C573   1.444       .  S
C570        C571   1.403       .  A
C571        C572   1.398       .  A
C571        H584   1.084       .  S
C572        C574   1.444       .  S
C573        N577   1.157       .  T
C574        N578   1.157       .  T
C575        N580   1.157       .  T
C576        N579   1.157       .  T
C585        C586   1.407       .  A
C585        C590   1.401       .  A
C585        C599   1.444       .  S
C586        C591   1.484       .  S
C586        C587   1.400       .  A
C587        C588   1.402       .  A
C587        H606   1.085       .  S
C588        C589   1.422       .  A
C588        C600   1.444       .  S
C589        C590   1.410       .  A
C590        H605   1.084       .  S
C591        C592   1.404       .  A
C591        C596   1.410       .  A
C592        C593   1.401       .  A
C592        H607   1.085       .  S
C593        C594   1.410       .  A
C593        C597   1.443       .  S
C594        C595   1.402       .  A
C595        C596   1.400       .  A
C595        H608   1.085       .  S
C596        C598   1.443       .  S
C597        N601   1.157       .  T
C598        N602   1.157       .  T
C599        N604   1.157       .  T
C600        N603   1.157       .  T
C609        C610   1.407       .  A
C609        C614   1.400       .  A
C609        C623   1.443       .  S
C610        C615   1.481       .  S
C610        C611   1.400       .  A
C611        C612   1.402       .  A
C611        H630   1.085       .  S
C612        C613   1.418       .  A
C612        C624   1.444       .  S
C613        C614   1.408       .  A
C614        H629   1.084       .  S
C615        C616   1.402       .  A
C615        C620   1.410       .  A
C616        C617   1.401       .  A
C616        H631   1.085       .  S
C617        C618   1.410       .  A
C617        C621   1.443       .  S
C618        C619   1.403       .  A
C619        C620   1.400       .  A
C619        H632   1.085       .  S
C620        C622   1.443       .  S
C621        N625   1.157       .  T
C622        N626   1.157       .  T
C623        N628   1.157       .  T
C624        N627   1.157       .  T
C633        C634   1.413       .  A
C633        C638   1.399       .  A
C633        C647   1.444       .  S
C634        C639   1.490       .  S
C634        C635   1.405       .  A
C635        C636   1.400       .  A
C635        H654   1.084       .  S
C636        C637   1.411       .  A
C636        C648   1.444       .  S
C637        C638   1.403       .  A
C638        H653   1.084       .  S
C639        C640   1.403       .  A
C639        C644   1.412       .  A
C640        C641   1.400       .  A
C640        H655   1.085       .  S
C641        C642   1.417       .  A
C641        C645   1.444       .  S
C642        C643   1.406       .  A
C643        C644   1.401       .  A
C643        H656   1.085       .  S
C644        C646   1.444       .  S
C645        N649   1.157       .  T
C646        N650   1.157       .  T
C647        N652   1.157       .  T
C648        N651   1.157       .  T
C657        C658   1.408       .  A
C657        C662   1.399       .  A
C657        C671   1.445       .  S
C658        C663   1.477       .  S
C658        C659   1.400       .  A
C659        C660   1.399       .  A
C659        H678   1.085       .  S
C660        C661   1.413       .  A
C660        C672   1.444       .  S
C661        C662   1.405       .  A
C662        H677   1.084       .  S
C663        C664   1.401       .  A
C663        C668   1.410       .  A
C664        C665   1.398       .  A
C664        H679   1.085       .  S
C665        C666   1.411       .  A
C665        C669   1.444       .  S
C666        C667   1.402       .  A
C667        C668   1.397       .  A
C667        H680   1.084       .  S
C668        C670   1.444       .  S
C669        N673   1.157       .  T
C670        N674   1.157       .  T
C671        N676   1.157       .  T
C672        N675   1.157       .  T
C681        C682   1.415       .  A
C681        C686   1.398       .  A
C681        C695   1.444       .  S
C682        C687   1.490       .  S
C682        C683   1.406       .  A
C683        C684   1.401       .  A
C683        H702   1.084       .  S
C684        C685   1.409       .  A
C684        C696   1.443       .  S
C685        C686   1.399       .  A
C686        H701   1.085       .  S
C687        C688   1.401       .  A
C687        C692   1.411       .  A
C688        C689   1.398       .  A
C688        H703   1.085       .  S
C689        C690   1.419       .  A
C689        C693   1.444       .  S
C690        C691   1.408       .  A
C691        C692   1.402       .  A
C691        H704   1.084       .  S
C692        C694   1.444       .  S
C693        N697   1.157       .  T
C694        N698   1.157       .  T
C695        N700   1.157       .  T
C696        N699   1.157       .  T
C705        C706   1.410       .  A
C705        C710   1.400       .  A
C705        C719   1.444       .  S
C706        C711   1.485       .  S
C706        C707   1.402       .  A
C707        C708   1.402       .  A
C707        H726   1.085       .  S
C708        C709   1.416       .  A
C708        C720   1.444       .  S
C709        C710   1.406       .  A
C710        H725   1.085       .  S
C711        C712   1.403       .  A
C711        C716   1.410       .  A
C712        C713   1.400       .  A
C712        H727   1.085       .  S
C713        C714   1.412       .  A
C713        C717   1.444       .  S
C714        C715   1.404       .  A
C715        C716   1.400       .  A
C715        H728   1.084       .  S
C716        C718   1.443       .  S
C717        N721   1.157       .  T
C718        N722   1.157       .  T
C719        N724   1.157       .  T
C720        N723   1.157       .  T
C729        C730   1.409       .  A
C729        C734   1.401       .  A
C729        C743   1.444       .  S
C730        C735   1.481       .  S
C730        C731   1.401       .  A
C731        C732   1.399       .  A
C731        H750   1.084       .  S
C732        C733   1.413       .  A
C732        C744   1.444       .  S
C733        C734   1.405       .  A
C734        H749   1.085       .  S
C735        C736   1.403       .  A
C735        C740   1.410       .  A
C736        C737   1.402       .  A
C736        H751   1.086       .  S
C737        C738   1.413       .  A
C737        C741   1.444       .  S
C738        C739   1.402       .  A
C739        C740   1.396       .  A
C739        H752   1.085       .  S
C740        C742   1.444       .  S
C741        N745   1.157       .  T
C742        N746   1.157       .  T
C743        N748   1.157       .  T
C744        N747   1.157       .  T
C753        C754   1.408       .  A
C753        C758   1.400       .  A
C753        C767   1.443       .  S
C754        C759   1.483       .  S
C754        C755   1.403       .  A
C755        C756   1.402       .  A
C755        H774   1.085       .  S
C756        C757   1.412       .  A
C756        C768   1.443       .  S
C757        C758   1.404       .  A
C758        H773   1.084       .  S
C759        C760   1.399       .  A
C759        C764   1.408       .  A
C760        C761   1.400       .  A
C760        H775   1.084       .  S
C761        C762   1.419       .  A
C761        C765   1.444       .  S
C762        C763   1.409       .  A
C763        C764   1.403       .  A
C763        H776   1.084       .  S
C764        C766   1.444       .  S
C765        N769   1.157       .  T
C766        N770   1.157       .  T
C767        N772   1.157       .  T
C768        N771   1.157       .  T
C777        C778   1.411       .  A
C777        C782   1.400       .  A
C777        C791   1.444       .  S
C778        C783   1.486       .  S
C778        C779   1.404       .  A
C779        C780   1.402       .  A
C779        H798   1.085       .  S
C780        C781   1.410       .  A
C780        C792   1.443       .  S
C781        C782   1.402       .  A
C782        H797   1.085       .  S
C783        C784   1.401       .  A
C783        C788   1.410       .  A
C784        C785   1.400       .  A
C784        H799   1.085       .  S
C785        C786   1.417       .  A
C785        C789   1.444       .  S
C786        C787   1.408       .  A
C787        C788   1.403       .  A
C787        H800   1.084       .  S
C788        C790   1.444       .  S
C789        N793   1.157       .  T
C790        N794   1.157       .  T
C791        N796   1.157       .  T
C792        N795   1.157       .  T
C801        C802   1.411       .  A
C801        C806   1.402       .  A
C801        C815   1.444       .  S
C802        C807   1.483       .  S
C802        C803   1.402       .  A
C803        C804   1.399       .  A
C803        H822   1.085       .  S
C804        C805   1.410       .  A
C804        C816   1.444       .  S
C805        C806   1.404       .  A
C806        H821   1.085       .  S
C807        C808   1.402       .  A
C807        C812   1.410       .  A
C808        C809   1.401       .  A
C808        H823   1.085       .  S
C809        C810   1.414       .  A
C809        C813   1.444       .  S
C810        C811   1.406       .  A
C811        C812   1.401       .  A
C811        H824   1.085       .  S
C812        C814   1.444       .  S
C813        N817   1.157       .  T
C814        N818   1.157       .  T
C815        N820   1.157       .  T
C816        N819   1.157       .  T
C825        C826   1.413       .  A
C825        C830   1.400       .  A
C825        C839   1.444       .  S
C826        C831   1.490       .  S
C826        C827   1.405       .  A
C827        C828   1.401       .  A
C827        H846   1.085       .  S
C828        C829   1.410       .  A
C828        C840   1.443       .  S
C829        C830   1.401       .  A
C830        H845   1.085       .  S
C831        C832   1.403       .  A
C831        C836   1.411       .  A
C832        C833   1.401       .  A
C832        H847   1.085       .  S
C833        C834   1.417       .  A
C833        C837   1.444       .  S
C834        C835   1.409       .  A
C835        C836   1.402       .  A
C835        H848   1.084       .  S
C836        C838   1.444       .  S
C837        N841   1.157       .  T
C838        N842   1.157       .  T
C839        N844   1.157       .  T
C840        N843   1.157       .  T
C849        C850   1.407       .  A
C849        C854   1.396       .  A
C849        C863   1.445       .  S
C850        C855   1.480       .  S
C850        C851   1.401       .  A
C851        C852   1.403       .  A
C851        H870   1.085       .  S
C852        C853   1.418       .  A
C852        C864   1.444       .  S
C853        C854   1.409       .  A
C854        H869   1.084       .  S
C855        C856   1.402       .  A
C855        C860   1.409       .  A
C856        C857   1.402       .  A
C856        H871   1.085       .  S
C857        C858   1.413       .  A
C857        C861   1.444       .  S
C858        C859   1.403       .  A
C859        C860   1.396       .  A
C859        H872   1.084       .  S
C860        C862   1.444       .  S
C861        N865   1.157       .  T
C862        N866   1.157       .  T
C863        N868   1.157       .  T
C864        N867   1.157       .  T
C873        C874   1.409       .  A
C873        C878   1.398       .  A
C873        C887   1.444       .  S
C874        C879   1.483       .  S
C874        C875   1.402       .  A
C875        C876   1.401       .  A
C875        H894   1.085       .  S
C876        C877   1.416       .  A
C876        C888   1.444       .  S
C877        C878   1.406       .  A
C878        H893   1.085       .  S
C879        C880   1.403       .  A
C879        C884   1.411       .  A
C880        C881   1.398       .  A
C880        H895   1.085       .  S
C881        C882   1.409       .  A
C881        C885   1.443       .  S
C882        C883   1.402       .  A
C883        C884   1.399       .  A
C883        H896   1.085       .  S
C884        C886   1.443       .  S
C885        N889   1.157       .  T
C886        N890   1.157       .  T
C887        N892   1.157       .  T
C888        N891   1.157       .  T
C897        C898   1.410       .  A
C897        C902   1.400       .  A
C897        C911   1.443       .  S
C898        C903   1.481       .  S
C898        C899   1.402       .  A
C899        C900   1.399       .  A
C899        H918   1.085       .  S
C900        C901   1.410       .  A
C900        C912   1.443       .  S
C901        C902   1.403       .  A
C902        H917   1.085       .  S
C903        C904   1.398       .  A
C903        C908   1.408       .  A
C904        C905   1.399       .  A
C904        H919   1.085       .  S
C905        C906   1.422       .  A
C905        C909   1.444       .  S
C906        C907   1.409       .  A
C907        C908   1.402       .  A
C907        H920   1.084       .  S
C908        C910   1.443       .  S
C909        N913   1.157       .  T
C910        N914   1.157       .  T
C911        N916   1.157       .  T
C912        N915   1.157       .  T
C921        C922   1.411       .  A
C921        C926   1.397       .  A
C921        C935   1.444       .  S
C922        C927   1.483       .  S
C922        C923   1.404       .  A
C923        C924   1.399       .  A
C923        H942   1.085       .  S
C924        C925   1.411       .  A
C924        C936   1.444       .  S
C925        C926   1.403       .  A
C926        H941   1.084       .  S
C927        C928   1.401       .  A
C927        C932   1.409       .  A
C928        C929   1.399       .  A
C928        H943   1.085       .  S
C929        C930   1.416       .  A
C929        C933   1.444       .  S
C930        C931   1.407       .  A
C931        C932   1.400       .  A
C931        H944   1.084       .  S
C932        C934   1.445       .  S
C933        N937   1.157       .  T
C934        N938   1.157       .  T
C935        N940   1.157       .  T
C936        N939   1.157       .  T
