geometry optimzed in LAMMPS
_audit_creation_date              2020-12-01 
_audit_creation_method            'lammps2cif' 
_symmetry_space_group_name_H-M    'P1' 
_symmetry_Int_Tables_number       1 
_symmetry_cell_setting            triclinic 
loop_ 
_symmetry_equiv_pos_as_xyz 
  x,y,z 
_cell_length_a                    28.21272902 
_cell_length_b                    28.218879223781915 
_cell_length_c                    28.220526230920424 
_cell_angle_alpha                 90.04780608414832 
_cell_angle_beta                  89.99170844825044 
_cell_angle_gamma                 89.96398837301174 
loop_ 
_atom_site_label 
_atom_site_type_symbol 
_atom_site_fract_x 
_atom_site_fract_y 
_atom_site_fract_z 
_atom_site_charge 
O1          O  0.59553104  0.34110289  0.96273923    -0.71700
O2          O  0.73011828  0.33720014  0.96158426    -0.71900
O3          O  0.66119238  0.27195365  0.96212037    -0.71700
O4          O  0.66455109  0.40634053  0.96194782    -0.71800
O5          O  0.66144264  0.40665869  0.03891021    -0.71700
O6          O  0.66522504  0.27204763  0.03910696    -0.71700
O7          O  0.73064292  0.34098689  0.03858476    -0.71700
O8          O  0.59620243  0.33767876  0.03966869    -0.71900
V9          V  0.66284732  0.33915786  0.96357774     1.35200
V10         V  0.66339265  0.33934199  0.03759730     1.35200
C11         C  0.57298589  0.34003452  0.00145850     0.77600
C12         C  0.75310637  0.33875428  0.99994997     0.77600
C13         C  0.66345834  0.24927802  0.00058917     0.77500
C14         C  0.66235813  0.42936024  0.00030486     0.77500
O15         O  0.12590663  0.40004506  0.96416829    -0.71700
O16         O  0.12705114  0.26561461  0.96209634    -0.71900
O17         O  0.05931350  0.33264693  0.96254638    -0.71700
O18         O  0.19386322  0.33295111  0.96371975    -0.71800
O19         O  0.19328143  0.33161777  0.04070394    -0.71700
O20         O  0.05869783  0.33195403  0.03963215    -0.71700
O21         O  0.12594449  0.26457286  0.03917688    -0.71700
O22         O  0.12614194  0.39912007  0.04113185    -0.71900
V23         V  0.12655942  0.33282170  0.96463941     1.35200
V24         V  0.12601547  0.33184669  0.03867165     1.35200
C25         C  0.12539671  0.42247949  0.00293149     0.77600
C26         C  0.12672077  0.24239241  0.00030415     0.77600
C27         C  0.03628469  0.33242930  0.00090169     0.77500
C28         C  0.21646340  0.33148466  0.00237163     0.77500
O29         O  0.66745347  0.80910566  0.95951262    -0.71700
O30         O  0.66642985  0.94370048  0.96074578    -0.71900
O31         O  0.73407601  0.87680727  0.96125647    -0.71700
O32         O  0.59948578  0.87624064  0.95894081    -0.71800
O33         O  0.59822787  0.87594165  0.03593133    -0.71700
O34         O  0.73275506  0.87531646  0.03832332    -0.71700
O35         O  0.66575142  0.94299305  0.03783050    -0.71700
O36         O  0.66556539  0.80850460  0.03645901    -0.71900
V37         V  0.66678670  0.87642511  0.96160271     1.35200
V38         V  0.66553625  0.87572593  0.03562797     1.35200
C39         C  0.66767471  0.78590219  0.99783790     0.77600
C40         C  0.66615641  0.96606558  0.99951538     0.77600
C41         C  0.75612276  0.87586522  0.00017821     0.77500
C42         C  0.57595476  0.87665312  0.99706412     0.77500
O43         O  0.19591428  0.86654548  0.96351835    -0.71700
O44         O  0.06160502  0.86971511  0.96468695    -0.71900
O45         O  0.13008673  0.93552542  0.96223939    -0.71700
O46         O  0.12707651  0.80101356  0.96632243    -0.71800
O47         O  0.12812274  0.80336930  0.04322495    -0.71700
O48         O  0.13075973  0.93770463  0.03930083    -0.71700
O49         O  0.06216233  0.87199940  0.04174662    -0.71700
O50         O  0.19687169  0.86920171  0.04046283    -0.71900
V51         V  0.12875461  0.86827245  0.96570033     1.35200
V52         V  0.12950472  0.87052183  0.03969865     1.35200
C53         C  0.21927861  0.86687239  0.00170520     0.77600
C54         C  0.03917888  0.87128993  0.00333054     0.77600
C55         C  0.13052966  0.95931934  0.00017259     0.77500
C56         C  0.12630404  0.77928644  0.00549865     0.77500
O57         O  0.59766443  0.06694591  0.76975392    -0.71700
O58         O  0.73203005  0.06456813  0.76899114    -0.71900
O59         O  0.66505967  0.06716345  0.83660067    -0.71700
O60         O  0.66466837  0.06460441  0.70199155    -0.71800
O61         O  0.66833609  0.14153897  0.70081852    -0.71700
O62         O  0.66407288  0.14423851  0.83514511    -0.71700
O63         O  0.73332264  0.14165433  0.76983669    -0.71700
O64         O  0.59873528  0.14385644  0.76608923    -0.71900
V65         V  0.66483530  0.06731272  0.76928350     1.35200
V66         V  0.66603481  0.14133627  0.76797031     1.35200
C67         C  0.57532397  0.10573823  0.76859732     0.77600
C68         C  0.75538320  0.10269468  0.76951978     0.77600
C69         C  0.66429033  0.10616645  0.85859048     0.77500
C70         C  0.66781487  0.10265920  0.67859251     0.77500
O71         O  0.19493738  0.14382639  0.76877437    -0.71700
O72         O  0.06043945  0.14090561  0.76829683    -0.71900
O73         O  0.12744340  0.14100125  0.83566560    -0.71700
O74         O  0.12769663  0.14378143  0.70126400    -0.71800
O75         O  0.12915222  0.06693432  0.69947014    -0.71700
O76         O  0.12983953  0.06395751  0.83404624    -0.71700
O77         O  0.06215333  0.06384071  0.76709180    -0.71700
O78         O  0.19669547  0.06691228  0.76656107    -0.71900
V79         V  0.12769702  0.14087212  0.76843138     1.35200
V80         V  0.12942149  0.06689273  0.76678883     1.35200
C81         C  0.21873743  0.10585666  0.76846761     0.77600
C82         C  0.03857721  0.10188859  0.76783603     0.77600
C83         C  0.12866319  0.10203568  0.85756803     0.77500
C84         C  0.12799456  0.10590672  0.67736240     0.77500
O85         O  0.19782857  0.06351649  0.23145331    -0.71700
O86         O  0.06330140  0.06441793  0.23090221    -0.71900
O87         O  0.13088847  0.06313850  0.16389437    -0.71700
O88         O  0.13004568  0.06471894  0.29840217    -0.71800
O89         O  0.13476051  0.14162312  0.29754210    -0.71700
O90         O  0.12767693  0.14016163  0.16319182    -0.71700
O91         O  0.06391146  0.14145526  0.23403917    -0.71700
O92         O  0.19825033  0.14030765  0.22676563    -0.71900
V93         V  0.13054503  0.06541842  0.23116323     1.35200
V94         V  0.13110395  0.13942200  0.23040857     1.35200
C95         C  0.22098015  0.10169373  0.22790814     0.77600
C96         C  0.04089706  0.10309621  0.23308389     0.77600
C97         C  0.12895459  0.10140426  0.14081099     0.77500
C98         C  0.13306950  0.10339688  0.32077697     0.77500
O99         O  0.60071481  0.14338105  0.23056034    -0.71700
O100        O  0.73514587  0.14264167  0.23483378    -0.71900
O101        O  0.66976361  0.14456167  0.16540128    -0.71700
O102        O  0.66610975  0.14128941  0.29994397    -0.71800
O103        O  0.66984595  0.06453170  0.29791570    -0.71700
O104        O  0.66528594  0.06761832  0.16364243    -0.71700
O105        O  0.73484700  0.06577774  0.22884979    -0.71700
O106        O  0.60033060  0.06640209  0.23278703    -0.71900
V107        V  0.66791668  0.14151503  0.23265892     1.35200
V108        V  0.66758024  0.06755226  0.23084381     1.35200
C109        C  0.57766134  0.10500002  0.23080506     0.77600
C110        C  0.75771847  0.10409081  0.23219665     0.77600
C111        C  0.66713121  0.10659532  0.14180137     0.77500
C112        C  0.66869566  0.10231357  0.32192794     0.77500
O113        O  0.85637879  0.86985601  0.70388678    -0.71700
O114        O  0.85885622  0.86901461  0.83839464    -0.71900
O115        O  0.85779217  0.93682332  0.77170887    -0.71700
O116        O  0.85760801  0.80226123  0.77032039    -0.71800
O117        O  0.93462398  0.80214614  0.77282407    -0.71700
O118        O  0.93473877  0.93653036  0.76667548    -0.71700
O119        O  0.93586450  0.87262801  0.83706103    -0.71700
O120        O  0.93329037  0.86596764  0.70260695    -0.71900
V121        V  0.85913409  0.86952261  0.77111099     1.35200
V122        V  0.93315824  0.86935479  0.76983331     1.35200
C123        C  0.89436948  0.86651605  0.68038098     0.77600
C124        C  0.89772093  0.87136250  0.86046542     0.77600
C125        C  0.89632529  0.95940268  0.76885436     0.77500
C126        C  0.89612462  0.77935696  0.77106471     0.77500
O127        O  0.93698296  0.33217246  0.70184224    -0.71700
O128        O  0.93484216  0.33267353  0.83632450    -0.71900
O129        O  0.93576682  0.26523283  0.76908626    -0.71700
O130        O  0.93614954  0.39969958  0.76891240    -0.71800
O131        O  0.85925931  0.40005979  0.76566218    -0.71700
O132        O  0.85865864  0.26552611  0.76972602    -0.71700
O133        O  0.85777863  0.33500995  0.83505981    -0.71700
O134        O  0.86003930  0.33054709  0.70061785    -0.71900
V135        V  0.93443495  0.33247976  0.76904906     1.35200
V136        V  0.86041254  0.33280058  0.76783577     1.35200
C137        C  0.89891187  0.33016415  0.67832257     0.77600
C138        C  0.89594690  0.33425613  0.85841251     0.77600
C139        C  0.89715719  0.24265748  0.76941204     0.77500
C140        C  0.89785852  0.42281911  0.76631252     0.77500
O141        O  0.85559442  0.80590109  0.23074130    -0.71700
O142        O  0.85872113  0.94027407  0.23564096    -0.71900
O143        O  0.85765987  0.87550478  0.16613323    -0.71700
O144        O  0.85664664  0.87041497  0.30055464    -0.71800
O145        O  0.93365285  0.86918627  0.30117623    -0.71700
O146        O  0.93473397  0.87307998  0.16666900    -0.71700
O147        O  0.93581379  0.93848086  0.23576082    -0.71700
O148        O  0.93254373  0.80402104  0.23173887    -0.71900
V149        V  0.85866224  0.87304570  0.23335151     1.35200
V150        V  0.93269554  0.87127201  0.23389146     1.35200
C151        C  0.89352557  0.78207564  0.22971582     0.77600
C152        C  0.89778024  0.96209133  0.23588289     0.77600
C153        C  0.89636917  0.87478070  0.14369496     0.77500
C154        C  0.89493617  0.86824884  0.32371940     0.77500
O155        O  0.85962807  0.33392695  0.29949273    -0.71700
O156        O  0.85718470  0.33478832  0.16498793    -0.71900
O157        O  0.85970967  0.26731230  0.23192536    -0.71700
O158        O  0.85698706  0.40179543  0.23248131    -0.71800
O159        O  0.93397414  0.40330311  0.23087920    -0.71700
O160        O  0.93679617  0.26874241  0.23067899    -0.71700
O161        O  0.93426880  0.33635395  0.16369590    -0.71700
O162        O  0.93662746  0.33581861  0.29824074    -0.71900
V163        V  0.85988463  0.33454989  0.23223975     1.35200
V164        V  0.93392481  0.33604568  0.23095423     1.35200
C165        C  0.89852530  0.33376335  0.32172062     0.77600
C166        C  0.89534988  0.33572823  0.14162645     0.77600
C167        C  0.89866940  0.24530457  0.23126900     0.77500
C168        C  0.89499332  0.42541611  0.23060546     0.77500
O169        O  0.96277739  0.37232127  0.99836927    -0.71700
O170        O  0.82833365  0.37551464  0.00141465    -0.71900
O171        O  0.89718001  0.37412634  0.06716810    -0.71700
O172        O  0.89410380  0.37348368  0.93253714    -0.71800
O173        O  0.89586755  0.29640275  0.93299915    -0.71700
O174        O  0.89184535  0.29721139  0.06740170    -0.71700
O175        O  0.82656655  0.29849892  0.99817037    -0.71700
O176        O  0.96111905  0.29533520  0.00223589    -0.71900
V177        V  0.89553918  0.37238848  0.99986605     1.35200
V178        V  0.89386120  0.29833990  0.00018943     1.35200
C179        C  0.98466703  0.33334882  0.00047073     0.77600
C180        C  0.80472894  0.33756075  0.99974582     0.77600
C181        C  0.89461413  0.33573157  0.09000814     0.77500
C182        C  0.89518448  0.33477218  0.91004208     0.77500
O183        O  0.83105526  0.91319218  0.99907549    -0.71700
O184        O  0.96548102  0.91104303  0.00431091    -0.71900
O185        O  0.90080303  0.91108289  0.93435817    -0.71700
O186        O  0.89574345  0.91295702  0.06899613    -0.71800
O187        O  0.89811614  0.83588903  0.06976754    -0.71700
O188        O  0.89586535  0.83415536  0.93539011    -0.71700
O189        O  0.96428970  0.83398892  0.00163174    -0.71700
O190        O  0.82978321  0.83623589  0.00366754    -0.71900
V191        V  0.89825230  0.91061422  0.00170233     1.35200
V192        V  0.89705718  0.83656048  0.00259523     1.35200
C193        C  0.80771064  0.87508692  0.00104176     0.77600
C194        C  0.98759110  0.87214338  0.00332754     0.77600
C195        C  0.89836906  0.87226541  0.91213210     0.77500
C196        C  0.89674151  0.87463504  0.09209423     0.77500
O197        O  0.89955433  0.03714257  0.27324537    -0.71700
O198        O  0.89867671  0.17161828  0.27074924    -0.71900
O199        O  0.83180028  0.10407414  0.27150058    -0.71700
O200        O  0.96656076  0.10490022  0.27202811    -0.71800
O201        O  0.96660798  0.10205007  0.19497642    -0.71700
O202        O  0.83229070  0.10366227  0.19440055    -0.71700
O203        O  0.90026960  0.17028926  0.19367698    -0.71700
O204        O  0.89860466  0.03569405  0.19616514    -0.71900
V205        V  0.89917733  0.10439160  0.27040120     1.35200
V206        V  0.89946119  0.10297098  0.19631951     1.35200
C207        C  0.89883176  0.01370347  0.23513243     0.77600
C208        C  0.89943331  0.19367537  0.23186768     0.77600
C209        C  0.80933112  0.10389116  0.23276430     0.77500
C210        C  0.98929450  0.10342112  0.23346948     0.77500
O211        O  0.89677038  0.03375547  0.80726725    -0.71700
O212        O  0.89740061  0.16822868  0.80765701    -0.71900
O213        O  0.82986780  0.10143072  0.80779684    -0.71700
O214        O  0.96447517  0.10072352  0.80693221    -0.71800
O215        O  0.96398714  0.10094948  0.72983505    -0.71700
O216        O  0.82948312  0.10139406  0.73069289    -0.71700
O217        O  0.89684653  0.16840998  0.73055862    -0.71700
O218        O  0.89659272  0.03376882  0.73017002    -0.71900
V219        V  0.89714476  0.10099482  0.80590790     1.35200
V220        V  0.89673519  0.10110032  0.73181049     1.35200
C221        C  0.89654067  0.01103936  0.76871016     0.77600
C222        C  0.89709170  0.19103579  0.76920229     0.77600
C223        C  0.80697119  0.10175179  0.76935668     0.77500
C224        C  0.98695311  0.10095057  0.76822015     0.77500
O225        O  0.70432124  0.04070402  0.00061772    -0.71700
O226        O  0.70294356  0.17535254  0.99904926    -0.71900
O227        O  0.70453895  0.10901461  0.06700814    -0.71700
O228        O  0.70312135  0.10699789  0.93262440    -0.71800
O229        O  0.62600997  0.10806005  0.93323620    -0.71700
O230        O  0.62747334  0.10631597  0.06793072    -0.71700
O231        O  0.62586900  0.17452243  0.00156555    -0.71700
O232        O  0.62720892  0.04010076  0.99960523    -0.71900
V233        V  0.70223311  0.10802690  0.99983094     1.35200
V234        V  0.62813169  0.10730812  0.00057848     1.35200
C235        C  0.66592715  0.01768535  0.99998818     0.77600
C236        C  0.66412726  0.19765555  0.00044771     0.77600
C237        C  0.66631695  0.10755185  0.09018811     0.77500
C238        C  0.66441301  0.10720342  0.91021073     0.77500
O239        O  0.16627799  0.16862923  0.99827471    -0.71700
O240        O  0.16824410  0.03411248  0.00002814    -0.71900
O241        O  0.16724816  0.10046113  0.93185636    -0.71700
O242        O  0.16726445  0.10233261  0.06637779    -0.71800
O243        O  0.09020871  0.09928118  0.06649368    -0.71700
O244        O  0.09013363  0.10158482  0.93192338    -0.71700
O245        O  0.09115652  0.03313324  0.99797614    -0.71700
O246        O  0.08919120  0.16759557  0.00048518    -0.71900
V247        V  0.16576313  0.10135575  0.99911799     1.35200
V248        V  0.09166182  0.10038622  0.99919030     1.35200
C249        C  0.12741440  0.19081420  0.99958937     0.77600
C250        C  0.13000690  0.01091257  0.99907313     0.77600
C251        C  0.12868121  0.10117006  0.90917445     0.77500
C252        C  0.12876621  0.10091463  0.08916469     0.77500
C253        C  0.85968234  0.65439748  0.20149967    -0.22300
C254        C  0.89210104  0.62985245  0.22991523     0.09600
C255        C  0.92555159  0.65516020  0.25697948     0.10000
C256        C  0.92537731  0.70481758  0.25558761    -0.17300
C257        C  0.89262922  0.72975052  0.22756655    -0.27700
C258        C  0.85992787  0.70407065  0.19923955     0.18400
C259        C  0.89146270  0.57748498  0.22965452     0.12300
C260        C  0.96114752  0.62967930  0.28753529    -0.12000
H261        H  0.95054845  0.72432742  0.27707980     0.12600
C262        C  0.82641761  0.72709583  0.16449327    -0.22900
H263        H  0.83469989  0.63453864  0.18007480     0.08200
C264        C  0.86156741  0.55161971  0.26014247     0.04600
C265        C  0.86304784  0.50191308  0.25917859    -0.20100
C266        C  0.89372931  0.47765150  0.22834147    -0.12400
C267        C  0.92242248  0.50384239  0.19648593     0.13300
C268        C  0.92138079  0.55347868  0.19817856    -0.22800
C269        C  0.82856074  0.57656374  0.29390597    -0.05900
H270        H  0.84073900  0.48188030  0.28317609     0.14800
C271        C  0.95291100  0.48117976  0.15880520    -0.16100
H272        H  0.94360767  0.57371436  0.17424369     0.09100
H273        H  0.78925848  0.72084815  0.17582990     0.07000
H274        H  0.83159433  0.71108878  0.12889696     0.08200
H275        H  0.83209631  0.76561336  0.16023163     0.07200
H276        H  0.98375644  0.60649239  0.26515807     0.02100
H277        H  0.94242578  0.60764242  0.31418644     0.02600
H278        H  0.98459351  0.65482200  0.30670281     0.06100
H279        H  0.80777768  0.55105863  0.31547848     0.05100
H280        H  0.80329047  0.59894863  0.27370089    -0.00700
H281        H  0.84926022  0.59935742  0.31840140     0.00800
H282        H  0.94326186  0.49595622  0.12363344     0.04500
H283        H  0.94847277  0.44233279  0.15617561     0.06400
H284        H  0.99077739  0.48916961  0.16591092     0.07300
C285        C  0.93346713  0.30524534  0.55020684    -0.22300
C286        C  0.89951243  0.33221958  0.52613111     0.09600
C287        C  0.86460658  0.35699889  0.55187476     0.10000
C288        C  0.86509206  0.35508129  0.60152452    -0.17300
C289        C  0.89945844  0.32858479  0.62597682    -0.27700
C290        C  0.93342209  0.30222952  0.59981307     0.18400
C291        C  0.90023265  0.33266875  0.47377076     0.12300
C292        C  0.82712619  0.38564656  0.52688300    -0.12000
H293        H  0.83885918  0.37494953  0.62139382     0.12600
C294        C  0.96857623  0.26871880  0.62222713    -0.22900
H295        H  0.95951132  0.28543176  0.53000027     0.08200
C296        C  0.92892906  0.36464724  0.44833500     0.04600
C297        C  0.92823390  0.36366999  0.39860219    -0.20100
C298        C  0.89945858  0.33140477  0.37393452    -0.12400
C299        C  0.87193749  0.29822683  0.39969460     0.13300
C300        C  0.87221854  0.29984093  0.44933496    -0.22800
C301        C  0.95983219  0.39996340  0.47376498    -0.05900
H302        H  0.94960120  0.38874126  0.37886421     0.14800
C303        C  0.84355984  0.25928880  0.37649752    -0.16100
H304        H  0.85098660  0.27475259  0.46923386     0.09100
H305        H  0.00511476  0.28212297  0.61648425     0.07000
H306        H  0.96538327  0.23327088  0.60538287     0.08200
H307        H  0.96286944  0.26321522  0.66058336     0.07200
H308        H  0.80581162  0.36219539  0.50356375     0.02100
H309        H  0.84411356  0.41358979  0.50504617     0.02600
H310        H  0.80267018  0.40311227  0.55233390     0.06100
H311        H  0.97983808  0.42260846  0.44856988     0.05100
H312        H  0.98579084  0.38100952  0.49645216    -0.00700
H313        H  0.93758516  0.42333490  0.49631676     0.00800
H314        H  0.85486185  0.22450260  0.39103043     0.04500
H315        H  0.84838524  0.25733017  0.33764435     0.06400
H316        H  0.80532458  0.26444595  0.38426721     0.07300
C317        C  0.86376181  0.83607073  0.45088456    -0.22300
C318        C  0.89380119  0.86663635  0.47588154     0.09600
C319        C  0.92535463  0.89627372  0.45096757     0.10000
C320        C  0.92531931  0.89548182  0.40124531    -0.17300
C321        C  0.89461474  0.86554374  0.37597321    -0.27700
C322        C  0.86421563  0.83451569  0.40119916     0.18400
C323        C  0.89251513  0.86606617  0.52826556     0.12300
C324        C  0.95899208  0.92863845  0.47690384    -0.12000
H325        H  0.94891009  0.91886181  0.38196250     0.12600
C326        C  0.83345610  0.79780332  0.37743081    -0.22900
H327        H  0.84037424  0.81263317  0.47037358     0.08200
C328        C  0.86227898  0.89644795  0.55398552     0.04600
C329        C  0.86311849  0.89522333  0.60370031    -0.20100
C330        C  0.89318961  0.86396283  0.62813543    -0.12400
C331        C  0.92165986  0.83175081  0.60208847     0.13300
C332        C  0.92156627  0.83392931  0.55244100    -0.22800
C333        C  0.82926808  0.93009022  0.52890491    -0.05900
H334        H  0.84076368  0.91934015  0.62361103     0.14800
C335        C  0.95080120  0.79318883  0.62495349    -0.16100
H336        H  0.94376626  0.80981004  0.53233213     0.09100
H337        H  0.79557106  0.80581360  0.38446987     0.07000
H338        H  0.84184587  0.76228301  0.39215420     0.08200
H339        H  0.83889410  0.79544108  0.33867960     0.07200
H340        H  0.98284342  0.90736019  0.49984084     0.02100
H341        H  0.93875394  0.95390707  0.49927020     0.02600
H342        H  0.98129583  0.94945388  0.45204968     0.06100
H343        H  0.80796348  0.95133003  0.55432256     0.05100
H344        H  0.80446082  0.90977118  0.50610063    -0.00700
H345        H  0.84992072  0.95492339  0.50650088     0.00800
H346        H  0.94060311  0.75837373  0.60966619     0.04500
H347        H  0.94545016  0.79038248  0.66368481     0.06400
H348        H  0.98897742  0.79944804  0.61778511     0.07300
C349        C  0.93209369  0.55165589  0.74497118    -0.22300
C350        C  0.89688870  0.57503843  0.77097353     0.09600
C351        C  0.86128934  0.54863205  0.79391072     0.10000
C352        C  0.86231791  0.49900762  0.79113847    -0.17300
C353        C  0.89785629  0.47522999  0.76550741    -0.27700
C354        C  0.93259197  0.50211042  0.74102309     0.18400
C355        C  0.89686050  0.62739806  0.77179127     0.12300
C356        C  0.82234683  0.57287013  0.82129805    -0.12000
H357        H  0.83553129  0.47862713  0.80963350     0.12600
C358        C  0.96917708  0.48057989  0.70845362    -0.22900
H359        H  0.95866984  0.57238896  0.72651886     0.08200
C360        C  0.92273645  0.65306309  0.80597023     0.04600
C361        C  0.92215618  0.70278278  0.80460708    -0.20100
C362        C  0.89625335  0.72717542  0.76984066    -0.12400
C363        C  0.87130796  0.70124068  0.73483080     0.13300
C364        C  0.87152491  0.65161078  0.73668941    -0.22800
C365        C  0.95079518  0.62792247  0.84377466    -0.05900
H366        H  0.94155303  0.72274721  0.83109609     0.14800
C367        C  0.84592448  0.72428801  0.69381195    -0.16100
H368        H  0.85246200  0.63154502  0.71001367     0.09100
H369        H  0.00513067  0.48629644  0.72338204     0.07000
H370        H  0.96719431  0.49810540  0.67327779     0.08200
H371        H  0.96396206  0.44231251  0.70189530     0.07200
H372        H  0.80192500  0.59646373  0.79734595     0.02100
H373        H  0.83780850  0.59432242  0.85042443     0.02600
H374        H  0.79733346  0.54694419  0.83711398     0.06100
H375        H  0.96888772  0.65330818  0.86781579     0.05100
H376        H  0.97821985  0.60515090  0.82706989    -0.00700
H377        H  0.92684802  0.60548418  0.86543499     0.00800
H378        H  0.86028811  0.71012703  0.65999545     0.04500
H379        H  0.85022324  0.76323508  0.69260650     0.06400
H380        H  0.80751244  0.71598930  0.69573992     0.07300
C381        C  0.44973515  0.13194277  0.19816790    -0.22300
C382        C  0.42562864  0.10397659  0.23127470     0.09600
C383        C  0.45140707  0.07603720  0.26365304     0.10000
C384        C  0.50109630  0.07676487  0.26222614    -0.17300
C385        C  0.52544208  0.10505325  0.22935272    -0.27700
C386        C  0.49938499  0.13254968  0.19635443     0.18400
C387        C  0.37325896  0.10375327  0.23060027     0.12300
C388        C  0.42641591  0.04601568  0.29999185    -0.09000
H389        H  0.52108986  0.05568886  0.28736549     0.12600
C390        C  0.52218933  0.16122608  0.15742452    -0.22900
H391        H  0.42956791  0.15282171  0.17297661     0.08200
C392        C  0.34678294  0.13986607  0.25269990     0.04600
C393        C  0.29715895  0.13835630  0.25061329    -0.20100
C394        C  0.27339106  0.10174556  0.22657433    -0.12400
C395        C  0.30030687  0.06633634  0.20298373     0.13300
C396        C  0.34990457  0.06742150  0.20620378    -0.22800
C397        C  0.37095666  0.17962483  0.27887085    -0.05900
H398        H  0.27677554  0.16562914  0.26846056     0.14800
C399        C  0.27878580  0.02831596  0.17211728    -0.16100
H400        H  0.37068171  0.04033498  0.18847638     0.09100
H401        H  0.51402139  0.19936638  0.16268629     0.07000
H402        H  0.50765483  0.14989241  0.12264121     0.08200
H403        H  0.56109468  0.15684429  0.15537929     0.07200
H404        H  0.40372386  0.01940707  0.28197973     0.02100
H405        H  0.40393879  0.06884115  0.32288132     0.02600
H406        H  0.45189758  0.02679753  0.32302576     0.06100
H407        H  0.34497168  0.20466984  0.29464051     0.05100
H408        H  0.39391889  0.19981496  0.25414237    -0.00700
H409        H  0.39303853  0.16491906  0.30791907     0.00800
H410        H  0.29594991  0.02898856  0.13669253     0.04500
H411        H  0.24041103  0.03296688  0.16577429     0.06400
H412        H  0.28499421  0.99303876  0.18837327     0.07300
C413        C  0.10558516  0.14109781  0.54875099    -0.22300
C414        C  0.12876908  0.10429215  0.52488142     0.09600
C415        C  0.15148134  0.06821529  0.55084672     0.10000
C416        C  0.15038830  0.06966584  0.60049718    -0.17300
C417        C  0.12762574  0.10674689  0.62482601    -0.27700
C418        C  0.10469394  0.14293235  0.59847558     0.18400
C419        C  0.12914204  0.10431968  0.47252598     0.12300
C420        C  0.17697313  0.02833231  0.52606658    -0.12000
H421        H  0.16799374  0.04195559  0.62043155     0.12600
C422        C  0.07803057  0.18279051  0.62213565    -0.22900
H423        H  0.08809649  0.16847638  0.52824974     0.08200
C424        C  0.09298394  0.08200842  0.44623505     0.04600
C425        C  0.09570937  0.08172903  0.39661838    -0.20100
C426        C  0.13340187  0.10382470  0.37289156    -0.12400
C427        C  0.16974174  0.12608717  0.39935041     0.13300
C428        C  0.16691589  0.12625325  0.44896075    -0.22800
C429        C  0.05154933  0.05875258  0.47057104    -0.05900
H430        H  0.06791693  0.06481966  0.37616393     0.14800
C431        C  0.21280281  0.14831655  0.37680629    -0.16100
H432        H  0.19477742  0.14295461  0.46949935     0.09100
H433        H  0.06012894  0.20598682  0.59586379     0.07000
H434        H  0.10284833  0.20532317  0.64267931     0.08200
H435        H  0.05039689  0.16813879  0.64601170     0.07200
H436        H  0.20590501  0.04287455  0.50373385     0.02100
H437        H  0.15180532  0.00850003  0.50325257     0.02600
H438        H  0.19285315  0.00301146  0.55166204     0.06100
H439        H  0.02638142  0.04301653  0.44470989     0.05100
H440        H  0.03204956  0.08541442  0.49198840    -0.00700
H441        H  0.06431492  0.03004435  0.49421308     0.00800
H442        H  0.21378103  0.18670339  0.38540124     0.04500
H443        H  0.21378751  0.14427768  0.33779954     0.06400
H444        H  0.24530833  0.13129155  0.39105767     0.07300
C445        C  0.70399569  0.12772159  0.55142538    -0.22300
C446        C  0.66968197  0.10181122  0.52670381     0.09600
C447        C  0.63600055  0.07481375  0.55182862     0.10000
C448        C  0.63682266  0.07506978  0.60152841    -0.17300
C449        C  0.67055264  0.10177747  0.62646769    -0.27700
C450        C  0.70533862  0.12760677  0.60108099     0.18400
C451        C  0.67003393  0.10289221  0.47437035     0.12300
C452        C  0.59895246  0.04626630  0.52610207    -0.12000
H453        H  0.61046738  0.05507067  0.62104049     0.12600
C454        C  0.74551582  0.15376747  0.62476023    -0.22900
H455        H  0.73031339  0.14765565  0.53176967     0.08200
C456        C  0.64718635  0.13930630  0.44901440     0.04600
C457        C  0.64756410  0.13821746  0.39934081    -0.20100
C458        C  0.66997965  0.10130337  0.37443391    -0.12400
C459        C  0.69361147  0.06513743  0.40020063     0.13300
C460        C  0.69330554  0.06655020  0.44990928    -0.22800
C461        C  0.62206689  0.17898271  0.47446342    -0.05900
H462        H  0.62963941  0.16604881  0.37986813     0.14800
C463        C  0.72033990  0.02567196  0.37595483    -0.16100
H464        H  0.71109783  0.03903216  0.46996241     0.09100
H465        H  0.74260467  0.19221785  0.61697603     0.07000
H466        H  0.77980774  0.14052345  0.61063759     0.08200
H467        H  0.74662076  0.14890540  0.66364479     0.07200
H468        H  0.61636346  0.01931765  0.50329752     0.02100
H469        H  0.57705661  0.07002247  0.50365189     0.02600
H470        H  0.57502407  0.02754116  0.55109972     0.06100
H471        H  0.60569503  0.20442623  0.44929991     0.05100
H472        H  0.64766706  0.19870751  0.49689904    -0.00700
H473        H  0.59357876  0.16426385  0.49724842     0.00800
H474        H  0.73896616  0.00256180  0.40180912     0.04500
H475        H  0.74740421  0.04075214  0.35169480     0.06400
H476        H  0.69543656  0.00293253  0.35574395     0.07300
C477        C  0.34697145  0.13849380  0.79507216    -0.22300
C478        C  0.37095009  0.10668273  0.76548338     0.09600
C479        C  0.34511551  0.07395948  0.73802014     0.10000
C480        C  0.29544199  0.07449472  0.74002364    -0.17300
C481        C  0.27109952  0.10663085  0.76933467    -0.27700
C482        C  0.29736935  0.13834863  0.79820543     0.18400
C483        C  0.42330471  0.10686663  0.76568897     0.12300
C484        C  0.37002739  0.03848225  0.70680901    -0.12000
H485        H  0.27546398  0.04991565  0.71827334     0.12600
C486        C  0.27509355  0.17068897  0.83457058    -0.22900
H487        H  0.36726540  0.16274538  0.81693183     0.08200
C488        C  0.44947818  0.13627497  0.73499153     0.04600
C489        C  0.49916543  0.13568539  0.73726774    -0.20100
C490        C  0.52306605  0.10645986  0.76969155    -0.12400
C491        C  0.49651610  0.07810224  0.80154619     0.13300
C492        C  0.44694303  0.07818489  0.79850401    -0.22800
C493        C  0.42490431  0.16808652  0.69989359    -0.05900
H494        H  0.51948573  0.15760422  0.71315350     0.14800
C495        C  0.51866130  0.04906541  0.84062360    -0.16100
H496        H  0.42643226  0.05643972  0.82264576     0.09100
H497        H  0.28127199  0.20819186  0.82445446     0.07000
H498        H  0.29171881  0.16424725  0.86966226     0.08200
H499        H  0.23662805  0.16498770  0.83935071     0.07200
H500        H  0.39319977  0.01545446  0.72873178     0.02100
H501        H  0.39203298  0.05722859  0.68016141     0.02600
H502        H  0.34450011  0.01546597  0.68762627     0.06100
H503        H  0.45064686  0.18874004  0.67847085     0.05100
H504        H  0.40163787  0.19346999  0.71897516    -0.00700
H505        H  0.40303674  0.14651100  0.67532595     0.00800
H506        H  0.50261044  0.05922382  0.87511438     0.04500
H507        H  0.55731923  0.05443514  0.84427572     0.06400
H508        H  0.51170438  0.01087681  0.83421717     0.07300
C509        C  0.44696360  0.90471359  0.96856945    -0.22300
C510        C  0.42378591  0.87200168  0.99780319     0.09600
C511        C  0.45053667  0.84120701  0.02661304     0.10000
C512        C  0.50014531  0.84408299  0.02586275    -0.17300
C513        C  0.52362445  0.87670591  0.99657378    -0.27700
C514        C  0.49662518  0.90788733  0.96784597     0.18400
C515        C  0.37136411  0.87125498  0.99873552     0.12300
C516        C  0.42663618  0.80537648  0.05812085    -0.12000
H517        H  0.52079910  0.82026205  0.04781924     0.12600
C518        C  0.51840070  0.94627385  0.93769500    -0.22900
H519        H  0.42607735  0.92860768  0.94689633     0.08200
C520        C  0.34551261  0.90124975  0.02926419     0.04600
C521        C  0.29589301  0.89819733  0.03013882    -0.20100
C522        C  0.27159156  0.86595233  0.00104496    -0.12400
C523        C  0.29776315  0.83508603  0.97119473     0.13300
C524        C  0.34734452  0.83870932  0.96999114    -0.22800
C525        C  0.37035174  0.93642369  0.06084103    -0.05900
H526        H  0.27588908  0.92172428  0.05303925     0.14800
C527        C  0.27520417  0.79649728  0.94183482    -0.16100
H528        H  0.36756776  0.81516978  0.94727962     0.09100
H529        H  0.50297287  0.98109036  0.94772000     0.07000
H530        H  0.51038806  0.93935443  0.89980009     0.08200
H531        H  0.55724751  0.94941450  0.94191881     0.07200
H532        H  0.40519031  0.78067034  0.03626362     0.02100
H533        H  0.40308739  0.82374761  0.08375702     0.02600
H534        H  0.45277373  0.78413775  0.07849083     0.06100
H535        H  0.34485629  0.95706516  0.08264783     0.05100
H536        H  0.39097683  0.96171435  0.03890081    -0.00700
H537        H  0.39480900  0.91753775  0.08518412     0.00800
H538        H  0.28120201  0.80375551  0.90364325     0.04500
H539        H  0.23669914  0.79255587  0.94806733     0.06400
H540        H  0.29170282  0.76191256  0.95084846     0.07300
C541        C  0.09973173  0.65151185  0.04044750    -0.22300
C542        C  0.12647884  0.62696974  0.00660915     0.09600
C543        C  0.15229173  0.65233896  0.97223701     0.10000
C544        C  0.15113768  0.70200192  0.97276552    -0.17300
C545        C  0.12451921  0.72692901  0.00670921    -0.27700
C546        C  0.09762630  0.70119482  0.04055325     0.18400
C547        C  0.12585624  0.57457425  0.00689981     0.12300
C548        C  0.18139669  0.62694739  0.93534483    -0.12000
H549        H  0.17160798  0.72151799  0.94678143     0.12600
C550        C  0.06442614  0.72411113  0.07570682    -0.22900
H551        H  0.07932973  0.63162886  0.06623676     0.08200
C552        C  0.15516145  0.54830969  0.03767087     0.04600
C553        C  0.15385537  0.49863083  0.03599174    -0.20100
C554        C  0.12440804  0.47479238  0.00373303    -0.12400
C555        C  0.09446228  0.50126964  0.97340923     0.13300
C556        C  0.09554351  0.55093803  0.97549677    -0.22800
C557        C  0.18824001  0.57277375  0.07167098    -0.05900
H558        H  0.17660149  0.47828283  0.05932369     0.14800
C559        C  0.06022361  0.47750380  0.93996070    -0.16100
H560        H  0.07281468  0.57156891  0.95239582     0.09100
H561        H  0.07752406  0.71776842  0.11225614     0.07000
H562        H  0.02864587  0.70808542  0.07218318     0.08200
H563        H  0.05976797  0.76262137  0.07035553     0.07200
H564        H  0.15808584  0.60424648  0.91323844     0.02100
H565        H  0.20847710  0.60445931  0.95293186     0.02600
H566        H  0.19998575  0.65215518  0.91153339     0.06100
H567        H  0.20913498  0.54696898  0.09280354     0.05100
H568        H  0.16758511  0.59516334  0.09659372    -0.00700
H569        H  0.21340107  0.59546661  0.05169089     0.00800
H570        H  0.03770574  0.50370382  0.92108454     0.04500
H571        H  0.03648703  0.45341333  0.96006861     0.06400
H572        H  0.07989883  0.45699336  0.91277753     0.07300
C573        C  0.69493453  0.65756379  0.02927419    -0.22300
C574        C  0.66641567  0.63369711  0.99645998     0.09600
C575        C  0.63976480  0.65969954  0.96317445     0.10000
C576        C  0.64166222  0.70937752  0.96397147    -0.17300
C577        C  0.66958967  0.73357159  0.99734048    -0.27700
C578        C  0.69768086  0.70718731  0.02965112     0.18400
C579        C  0.66561151  0.58132015  0.99713587     0.12300
C580        C  0.60917227  0.63495613  0.92708882    -0.12000
H581        H  0.62051332  0.72946896  0.93897798     0.12600
C582        C  0.73266338  0.72948999  0.06341539    -0.22900
H583        H  0.71604376  0.63720729  0.05411750     0.08200
C584        C  0.69885207  0.55447487  0.97119476     0.04600
C585        C  0.69643617  0.50486120  0.97259989    -0.20100
C586        C  0.66183647  0.48158554  0.99970244    -0.12400
C587        C  0.62802530  0.50864559  0.02517545     0.13300
C588        C  0.63076566  0.55827601  0.02392245    -0.22800
C589        C  0.73691586  0.57822209  0.94226054    -0.05900
H590        H  0.72213695  0.48406433  0.95297451     0.14800
C591        C  0.58742131  0.48682283  0.05223264    -0.16100
H592        H  0.60501264  0.57922968  0.04332809     0.09100
H593        H  0.76815741  0.71335591  0.05788475     0.07000
H594        H  0.72138866  0.72275856  0.10049692     0.08200
H595        H  0.73710656  0.76807712  0.05830401     0.07200
H596        H  0.58194435  0.61326398  0.94538702     0.02100
H597        H  0.63135623  0.61151539  0.90456435     0.02600
H598        H  0.59068611  0.66057253  0.90361949     0.06100
H599        H  0.76007048  0.55196630  0.92421949     0.05100
H600        H  0.75948534  0.60040397  0.96563784    -0.00700
H601        H  0.72052437  0.60102442  0.91473659     0.00800
H602        H  0.59072105  0.49577659  0.09040682     0.04500
H603        H  0.58539545  0.44782994  0.04861964     0.06400
H604        H  0.55341658  0.50134527  0.03871860     0.07300
C605        C  0.34526110  0.30331412  0.97378980    -0.22300
C606        C  0.36858576  0.33445334  0.00458200     0.09600
C607        C  0.34202765  0.36358133  0.03531128     0.10000
C608        C  0.29237458  0.36117501  0.03425844    -0.17300
C609        C  0.26876631  0.33048032  0.00297916    -0.27700
C610        C  0.29563742  0.30035201  0.97298984     0.18400
C611        C  0.42097121  0.33572229  0.00429772     0.12300
C612        C  0.36616016  0.39724898  0.06899917    -0.12000
H613        H  0.27182418  0.38399825  0.05738589     0.12600
C614        C  0.27375827  0.26323501  0.94129004    -0.22900
H615        H  0.36602280  0.28053250  0.95078959     0.08200
C616        C  0.44793537  0.30427642  0.03221873     0.04600
C617        C  0.49755303  0.30709450  0.03098583    -0.20100
C618        C  0.52071919  0.34048349  0.00229647    -0.12400
C619        C  0.49348374  0.37278672  0.97515476     0.13300
C620        C  0.44388641  0.36944684  0.97605106    -0.22800
C621        C  0.42430742  0.26777464  0.06316299    -0.05900
H622        H  0.51842816  0.28259263  0.05196630     0.14800
C623        C  0.51500146  0.41253633  0.94664984    -0.16100
H624        H  0.42282509  0.39396540  0.95526073     0.09100
H625        H  0.28936469  0.22807777  0.94965831     0.07000
H626        H  0.28147704  0.27177325  0.90367540     0.08200
H627        H  0.23496981  0.25969064  0.94571964     0.07200
H628        H  0.38781579  0.42307988  0.04874491     0.02100
H629        H  0.38955350  0.37717372  0.09343251     0.02600
H630        H  0.34015204  0.41737665  0.09066675     0.06100
H631        H  0.45062205  0.24606166  0.08281737     0.05100
H632        H  0.40259710  0.24359047  0.04098931    -0.00700
H633        H  0.40104376  0.28559997  0.08943212     0.00800
H634        H  0.50692652  0.40724701  0.90850798     0.04500
H635        H  0.55384159  0.41571461  0.95098636     0.06400
H636        H  0.49945511  0.44679504  0.95828628     0.07300
loop_ 
_geom_bond_atom_site_label_1 
_geom_bond_atom_site_label_2 
_geom_bond_distance 
_geom_bond_site_symmetry_2 
_ccdc_geom_bond_type 
O1            V9   1.900       .  S
O1           C11   1.265   1_556  A
O2            V9   1.899       .  S
O2           C12   1.263       .  A
O3            V9   1.897       .  S
O3           C13   1.262   1_556  A
O4            V9   1.897       .  S
O4           C14   1.263   1_556  A
O5           V10   1.901       .  S
O5           C14   1.265       .  A
O6           V10   1.900       .  S
O6           C13   1.263       .  A
O7           V10   1.898       .  S
O7           C12   1.263   1_554  A
O8           V10   1.897       .  S
O8           C11   1.264       .  A
V9           V10   2.089   1_556  T
C11         C618   1.475       .  S
C12         C180   1.457       .  S
C13         C236   1.457       .  S
C14         C586   1.474   1_554  S
O15          V23   1.897       .  S
O15          C25   1.264   1_556  A
O16          V23   1.898       .  S
O16          C26   1.262   1_556  A
O17          V23   1.898       .  S
O17          C27   1.262   1_556  A
O18          V23   1.899       .  S
O18          C28   1.264   1_556  A
O19          V24   1.899       .  S
O19          C28   1.264       .  A
O20          V24   1.899       .  S
O20          C27   1.263       .  A
O21          V24   1.898       .  S
O21          C26   1.263       .  A
O22          V24   1.900       .  S
O22          C25   1.264       .  A
V23          V24   2.089   1_556  T
C25         C554   1.477       .  S
C26         C249   1.456   1_554  S
C27         C179   1.457   1_455  S
C28         C609   1.476       .  S
O29          V37   1.901       .  S
O29          C39   1.265       .  A
O30          V37   1.899       .  S
O30          C40   1.263       .  A
O31          V37   1.898       .  S
O31          C41   1.263   1_556  A
O32          V37   1.900       .  S
O32          C42   1.264       .  A
O33          V38   1.899       .  S
O33          C42   1.264   1_554  A
O34          V38   1.898       .  S
O34          C41   1.262       .  A
O35          V38   1.899       .  S
O35          C40   1.263   1_554  A
O36          V38   1.897       .  S
O36          C39   1.264   1_554  A
V37          V38   2.089   1_556  T
C39         C577   1.478       .  S
C40         C235   1.457   1_565  S
C41         C193   1.456       .  S
C42         C513   1.476       .  S
O43          V51   1.896       .  S
O43          C53   1.263   1_556  A
O44          V51   1.895       .  S
O44          C54   1.261   1_556  A
O45          V51   1.901       .  S
O45          C55   1.263   1_556  A
O46          V51   1.899       .  S
O46          C56   1.265   1_556  A
O47          V52   1.898       .  S
O47          C56   1.264       .  A
O48          V52   1.896       .  S
O48          C55   1.262       .  A
O49          V52   1.901       .  S
O49          C54   1.263       .  A
O50          V52   1.901       .  S
O50          C53   1.265       .  A
V51          V52   2.089   1_556  T
C53         C522   1.476       .  S
C54         C194   1.456   1_455  S
C55         C250   1.456   1_564  S
C56         C545   1.479       .  S
O57          V65   1.895       .  S
O57          C67   1.263       .  A
O58          V65   1.897       .  S
O58          C68   1.262       .  A
O59          V65   1.900       .  S
O59          C69   1.263       .  A
O60          V65   1.900       .  S
O60          C70   1.264       .  A
O61          V66   1.896       .  S
O61          C70   1.263       .  A
O62          V66   1.898       .  S
O62          C69   1.262       .  A
O63          V66   1.899       .  S
O63          C68   1.263       .  A
O64          V66   1.901       .  S
O64          C67   1.265       .  A
V65          V66   2.090       .  T
C67         C490   1.475       .  S
C68         C223   1.456       .  S
C69         C238   1.457       .  S
C70         C449   1.473       .  S
O71          V79   1.899       .  S
O71          C81   1.264       .  A
O72          V79   1.898       .  S
O72          C82   1.262       .  A
O73          V79   1.897       .  S
O73          C83   1.262       .  A
O74          V79   1.897       .  S
O74          C84   1.263       .  A
O75          V80   1.900       .  S
O75          C84   1.265       .  A
O76          V80   1.900       .  S
O76          C83   1.263       .  A
O77          V80   1.900       .  S
O77          C82   1.263       .  A
O78          V80   1.898       .  S
O78          C81   1.264       .  A
V79          V80   2.089       .  T
C81         C481   1.478       .  S
C82         C224   1.457   1_455  S
C83         C251   1.457       .  S
C84         C417   1.483       .  S
O85          V93   1.899       .  S
O85          C95   1.264       .  A
O86          V93   1.897       .  S
O86          C96   1.262       .  A
O87          V93   1.899       .  S
O87          C97   1.263       .  A
O88          V93   1.898       .  S
O88          C98   1.263       .  A
O89          V94   1.898       .  S
O89          C98   1.264       .  A
O90          V94   1.899       .  S
O90          C97   1.263       .  A
O91          V94   1.899       .  S
O91          C96   1.263       .  A
O92          V94   1.897       .  S
O92          C95   1.264       .  A
V93          V94   2.088       .  T
C95         C394   1.479       .  S
C96         C210   1.456   1_455  S
C97         C252   1.458       .  S
C98         C426   1.471       .  S
O99         V107   1.898       .  S
O99         C109   1.264       .  A
O100        V107   1.898       .  S
O100        C110   1.262       .  A
O101        V107   1.901       .  S
O101        C111   1.263       .  A
O102        V107   1.900       .  S
O102        C112   1.265       .  A
O103        V108   1.896       .  S
O103        C112   1.263       .  A
O104        V108   1.898       .  S
O104        C111   1.262       .  A
O105        V108   1.899       .  S
O105        C110   1.263       .  A
O106        V108   1.898       .  S
O106        C109   1.264       .  A
V107        V108   2.088       .  T
C109        C385   1.474       .  S
C110        C209   1.456       .  S
C111        C237   1.457       .  S
C112        C458   1.482       .  S
O113        V121   1.899       .  S
O113        C123   1.264       .  A
O114        V121   1.899       .  S
O114        C124   1.263       .  A
O115        V121   1.900       .  S
O115        C125   1.263       .  A
O116        V121   1.899       .  S
O116        C126   1.264       .  A
O117        V122   1.899       .  S
O117        C126   1.264       .  A
O118        V122   1.898       .  S
O118        C125   1.263       .  A
O119        V122   1.901       .  S
O119        C124   1.263       .  A
O120        V122   1.899       .  S
O120        C123   1.265       .  A
V121        V122   2.089       .  T
C123        C330   1.476       .  S
C124        C195   1.458       .  S
C125        C221   1.457   1_565  S
C126        C362   1.473       .  S
O127        V135   1.898       .  S
O127        C137   1.264       .  A
O128        V135   1.899       .  S
O128        C138   1.263       .  A
O129        V135   1.898       .  S
O129        C139   1.262       .  A
O130        V135   1.898       .  S
O130        C140   1.264       .  A
O131        V136   1.899       .  S
O131        C140   1.265       .  A
O132        V136   1.900       .  S
O132        C139   1.263       .  A
O133        V136   1.900       .  S
O133        C138   1.263       .  A
O134        V136   1.898       .  S
O134        C137   1.264       .  A
V135        V136   2.089       .  T
C137        C289   1.478       .  S
C138        C182   1.457       .  S
C139        C222   1.457       .  S
C140        C353   1.479       .  S
O141        V149   1.898       .  S
O141        C151   1.264       .  A
O142        V149   1.898       .  S
O142        C152   1.263       .  A
O143        V149   1.898       .  S
O143        C153   1.262       .  A
O144        V149   1.899       .  S
O144        C154   1.264       .  A
O145        V150   1.900       .  S
O145        C154   1.264       .  A
O146        V150   1.899       .  S
O146        C153   1.263       .  A
O147        V150   1.899       .  S
O147        C152   1.263       .  A
O148        V150   1.899       .  S
O148        C151   1.265       .  A
V149        V150   2.089       .  T
C151        C257   1.478       .  S
C152        C207   1.457   1_565  S
C153        C196   1.456       .  S
C154        C321   1.477       .  S
O155        V163   1.898       .  S
O155        C165   1.264       .  A
O156        V163   1.899       .  S
O156        C166   1.263       .  A
O157        V163   1.897       .  S
O157        C167   1.262       .  A
O158        V163   1.899       .  S
O158        C168   1.264       .  A
O159        V164   1.898       .  S
O159        C168   1.264       .  A
O160        V164   1.901       .  S
O160        C167   1.263       .  A
O161        V164   1.898       .  S
O161        C166   1.263       .  A
O162        V164   1.900       .  S
O162        C165   1.264       .  A
V163        V164   2.090       .  T
C165        C298   1.475       .  S
C166        C181   1.457       .  S
C167        C208   1.457       .  S
C168        C266   1.476       .  S
O169        V177   1.897       .  S
O169        C179   1.262   1_556  A
O170        V177   1.899   1_554  S
O170        C180   1.262   1_554  A
O171        V177   1.900   1_554  S
O171        C181   1.263       .  A
O172        V177   1.901       .  S
O172        C182   1.263       .  A
O173        V178   1.898   1_556  S
O173        C182   1.262       .  A
O174        V178   1.898       .  S
O174        C181   1.262       .  A
O175        V178   1.899   1_556  S
O175        C180   1.263       .  A
O176        V178   1.900       .  S
O176        C179   1.263       .  A
V177        V178   2.090   1_556  T
O183        V191   1.899   1_556  S
O183        C193   1.263   1_556  A
O184        V191   1.898       .  S
O184        C194   1.263       .  A
O185        V191   1.902   1_556  S
O185        C195   1.264       .  A
O186        V191   1.901       .  S
O186        C196   1.263       .  A
O187        V192   1.896       .  S
O187        C196   1.262       .  A
O188        V192   1.898   1_556  S
O188        C195   1.262       .  A
O189        V192   1.898       .  S
O189        C194   1.263       .  A
O190        V192   1.898       .  S
O190        C193   1.263       .  A
V191        V192   2.090       .  T
O197        V205   1.899       .  S
O197        C207   1.262       .  A
O198        V205   1.897       .  S
O198        C208   1.262       .  A
O199        V205   1.901       .  S
O199        C209   1.264       .  A
O200        V205   1.902       .  S
O200        C210   1.264       .  A
O201        V206   1.895       .  S
O201        C210   1.261       .  A
O202        V206   1.896       .  S
O202        C209   1.262       .  A
O203        V206   1.901       .  S
O203        C208   1.263       .  A
O204        V206   1.899       .  S
O204        C207   1.263       .  A
V205        V206   2.091       .  T
O211        V219   1.898       .  S
O211        C221   1.262       .  A
O212        V219   1.898       .  S
O212        C222   1.262       .  A
O213        V219   1.899       .  S
O213        C223   1.263       .  A
O214        V219   1.900       .  S
O214        C224   1.263       .  A
O215        V220   1.898       .  S
O215        C224   1.262       .  A
O216        V220   1.898       .  S
O216        C223   1.262       .  A
O217        V220   1.900       .  S
O217        C222   1.263       .  A
O218        V220   1.901       .  S
O218        C221   1.263       .  A
V219        V220   2.091       .  T
O225        V233   1.901   1_554  S
O225        C235   1.264   1_554  A
O226        V233   1.900       .  S
O226        C236   1.263   1_556  A
O227        V233   1.897   1_554  S
O227        C237   1.262       .  A
O228        V233   1.897       .  S
O228        C238   1.262       .  A
O229        V234   1.902   1_556  S
O229        C238   1.263       .  A
O230        V234   1.901       .  S
O230        C237   1.264       .  A
O231        V234   1.898       .  S
O231        C236   1.262       .  A
O232        V234   1.897   1_556  S
O232        C235   1.262       .  A
V233        V234   2.091   1_556  T
O239        V247   1.899       .  S
O239        C249   1.263       .  A
O240        V247   1.899   1_554  S
O240        C250   1.263   1_554  A
O241        V247   1.899       .  S
O241        C251   1.263       .  A
O242        V247   1.899   1_554  S
O242        C252   1.263       .  A
O243        V248   1.900   1_554  S
O243        C252   1.263       .  A
O244        V248   1.899       .  S
O244        C251   1.263       .  A
O245        V248   1.898       .  S
O245        C250   1.263       .  A
O246        V248   1.898   1_554  S
O246        C249   1.262   1_554  A
V247        V248   2.091       .  T
C253        C254   1.400       .  A
C253        C258   1.403       .  A
C253        H263   1.085       .  S
C254        C259   1.478       .  S
C254        C255   1.409       .  A
C255        C256   1.402       .  A
C255        C260   1.506       .  S
C256        C257   1.405       .  A
C256        H261   1.084       .  S
C257        C258   1.420       .  A
C258        C262   1.509       .  S
C259        C264   1.409       .  A
C259        C268   1.399       .  A
C260        H276   1.110       .  S
C260        H277   1.110       .  S
C260        H278   1.111       .  S
C262        H273   1.110       .  S
C262        H274   1.111       .  S
C262        H275   1.105       .  S
C264        C265   1.404       .  A
C264        C269   1.506       .  S
C265        C266   1.405       .  A
C265        H270   1.084       .  S
C266        C267   1.418       .  A
C267        C268   1.402       .  A
C267        C271   1.509       .  S
C268        H272   1.085       .  S
C269        H279   1.111       .  S
C269        H280   1.110       .  S
C269        H281   1.110       .  S
C271        H282   1.111       .  S
C271        H283   1.106       .  S
C271        H284   1.110       .  S
C285        C286   1.400       .  A
C285        C290   1.403       .  A
C285        H295   1.085       .  S
C286        C291   1.478       .  S
C286        C287   1.409       .  A
C287        C288   1.402       .  A
C287        C292   1.506       .  S
C288        C289   1.406       .  A
C288        H293   1.084       .  S
C289        C290   1.419       .  A
C290        C294   1.509       .  S
C291        C296   1.410       .  A
C291        C300   1.399       .  A
C292        H308   1.110       .  S
C292        H309   1.110       .  S
C292        H310   1.111       .  S
C294        H305   1.110   1_655  S
C294        H306   1.111       .  S
C294        H307   1.105       .  S
C296        C297   1.404       .  A
C296        C301   1.506       .  S
C297        C298   1.405       .  A
C297        H302   1.084       .  S
C298        C299   1.418       .  A
C299        C300   1.402       .  A
C299        C303   1.509       .  S
C300        H304   1.085       .  S
C301        H311   1.111       .  S
C301        H312   1.110       .  S
C301        H313   1.110       .  S
C303        H314   1.111       .  S
C303        H315   1.106       .  S
C303        H316   1.110       .  S
C317        C318   1.400       .  A
C317        C322   1.403       .  A
C317        H327   1.085       .  S
C318        C323   1.479       .  S
C318        C319   1.410       .  A
C319        C320   1.403       .  A
C319        C324   1.507       .  S
C320        C321   1.405       .  A
C320        H325   1.084       .  S
C321        C322   1.418       .  A
C322        C326   1.509       .  S
C323        C328   1.410       .  A
C323        C332   1.400       .  A
C324        H340   1.110       .  S
C324        H341   1.110       .  S
C324        H342   1.111       .  S
C326        H337   1.110       .  S
C326        H338   1.111       .  S
C326        H339   1.106       .  S
C328        C329   1.404       .  A
C328        C333   1.507       .  S
C329        C330   1.405       .  A
C329        H334   1.084       .  S
C330        C331   1.418       .  A
C331        C332   1.402       .  A
C331        C335   1.509       .  S
C332        H336   1.085       .  S
C333        H343   1.111       .  S
C333        H344   1.110       .  S
C333        H345   1.110       .  S
C335        H346   1.111       .  S
C335        H347   1.106       .  S
C335        H348   1.110       .  S
C349        C350   1.399       .  A
C349        C354   1.403       .  A
C349        H359   1.085       .  S
C350        C355   1.478       .  S
C350        C351   1.409       .  A
C351        C352   1.403       .  A
C351        C356   1.507       .  S
C352        C353   1.406       .  A
C352        H357   1.084       .  S
C353        C354   1.419       .  A
C354        C358   1.509       .  S
C355        C360   1.410       .  A
C355        C364   1.400       .  A
C356        H372   1.110       .  S
C356        H373   1.110       .  S
C356        H374   1.111       .  S
C358        H369   1.110   1_655  S
C358        H370   1.111       .  S
C358        H371   1.105       .  S
C360        C361   1.404       .  A
C360        C365   1.506       .  S
C361        C362   1.404       .  A
C361        H366   1.084       .  S
C362        C363   1.417       .  A
C363        C364   1.402       .  A
C363        C367   1.509       .  S
C364        H368   1.085       .  S
C365        H375   1.111       .  S
C365        H376   1.110       .  S
C365        H377   1.110       .  S
C367        H378   1.111       .  S
C367        H379   1.106       .  S
C367        H380   1.110       .  S
C381        C382   1.400       .  A
C381        C386   1.402       .  A
C381        H391   1.085       .  S
C382        C387   1.478       .  S
C382        C383   1.409       .  A
C383        C384   1.403       .  A
C383        C388   1.506       .  S
C384        C385   1.404       .  A
C384        H389   1.084       .  S
C385        C386   1.418       .  A
C386        C390   1.509       .  S
C387        C392   1.408       .  A
C387        C396   1.400       .  A
C388        H404   1.110       .  S
C388        H405   1.110       .  S
C388        H406   1.111       .  S
C390        H401   1.110       .  S
C390        H402   1.111       .  S
C390        H403   1.106       .  S
C392        C393   1.402       .  A
C392        C397   1.506       .  S
C393        C394   1.406       .  A
C393        H398   1.084       .  S
C394        C395   1.420       .  A
C395        C396   1.403       .  A
C395        C399   1.509       .  S
C396        H400   1.085       .  S
C397        H407   1.111       .  S
C397        H408   1.110       .  S
C397        H409   1.110       .  S
C399        H410   1.111       .  S
C399        H411   1.105       .  S
C399        H412   1.110   1_545  S
C413        C414   1.399       .  A
C413        C418   1.404       .  A
C413        H423   1.084       .  S
C414        C419   1.478       .  S
C414        C415   1.409       .  A
C415        C416   1.402       .  A
C415        C420   1.507       .  S
C416        C417   1.406       .  A
C416        H421   1.084       .  S
C417        C418   1.419       .  A
C418        C422   1.508       .  S
C419        C424   1.410       .  A
C419        C428   1.401       .  A
C420        H436   1.110       .  S
C420        H437   1.110       .  S
C420        H438   1.111       .  S
C422        H433   1.111       .  S
C422        H434   1.109       .  S
C422        H435   1.111       .  S
C424        C425   1.402       .  A
C424        C429   1.507       .  S
C425        C426   1.403       .  A
C425        H430   1.084       .  S
C426        C427   1.415       .  A
C427        C428   1.402       .  A
C427        C431   1.508       .  S
C428        H432   1.084       .  S
C429        H439   1.111       .  S
C429        H440   1.110       .  S
C429        H441   1.110       .  S
C431        H442   1.110       .  S
C431        H443   1.107       .  S
C431        H444   1.111       .  S
C445        C446   1.400       .  A
C445        C450   1.402       .  A
C445        H455   1.085       .  S
C446        C451   1.477       .  S
C446        C447   1.410       .  A
C447        C448   1.403       .  A
C447        C452   1.506       .  S
C448        C449   1.403       .  A
C448        H453   1.084       .  S
C449        C450   1.417       .  A
C450        C454   1.509       .  S
C451        C456   1.409       .  A
C451        C460   1.399       .  A
C452        H468   1.110       .  S
C452        H469   1.110       .  S
C452        H470   1.111       .  S
C454        H465   1.110       .  S
C454        H466   1.111       .  S
C454        H467   1.106       .  S
C456        C457   1.402       .  A
C456        C461   1.506       .  S
C457        C458   1.406       .  A
C457        H462   1.084       .  S
C458        C459   1.420       .  A
C459        C460   1.403       .  A
C459        C463   1.508       .  S
C460        H464   1.084       .  S
C461        H471   1.111       .  S
C461        H472   1.110       .  S
C461        H473   1.110       .  S
C463        H474   1.111       .  S
C463        H475   1.111       .  S
C463        H476   1.109       .  S
C477        C478   1.399       .  A
C477        C482   1.402       .  A
C477        H487   1.085       .  S
C478        C483   1.477       .  S
C478        C479   1.409       .  A
C479        C480   1.403       .  A
C479        C484   1.506       .  S
C480        C481   1.406       .  A
C480        H485   1.084       .  S
C481        C482   1.419       .  A
C482        C486   1.509       .  S
C483        C488   1.409       .  A
C483        C492   1.399       .  A
C484        H500   1.110       .  S
C484        H501   1.110       .  S
C484        H502   1.111       .  S
C486        H497   1.110       .  S
C486        H498   1.111       .  S
C486        H499   1.105       .  S
C488        C489   1.403       .  A
C488        C493   1.506       .  S
C489        C490   1.405       .  A
C489        H494   1.084       .  S
C490        C491   1.418       .  A
C491        C492   1.401       .  A
C491        C495   1.510       .  S
C492        H496   1.085       .  S
C493        H503   1.111       .  S
C493        H504   1.110       .  S
C493        H505   1.110       .  S
C495        H506   1.111       .  S
C495        H507   1.106       .  S
C495        H508   1.110       .  S
C509        C510   1.401       .  A
C509        C514   1.404       .  A
C509        H519   1.085       .  S
C510        C515   1.479       .  S
C510        C511   1.409   1_556  A
C511        C512   1.402       .  A
C511        C516   1.507       .  S
C512        C513   1.404   1_554  A
C512        H517   1.084       .  S
C513        C514   1.419       .  A
C514        C518   1.509       .  S
C515        C520   1.410   1_556  A
C515        C524   1.400       .  A
C516        H532   1.110       .  S
C516        H533   1.110       .  S
C516        H534   1.111       .  S
C518        H529   1.111       .  S
C518        H530   1.110       .  S
C518        H531   1.106       .  S
C520        C521   1.403       .  A
C520        C525   1.507       .  S
C521        C522   1.404       .  A
C521        H526   1.084       .  S
C522        C523   1.418   1_554  A
C523        C524   1.403       .  A
C523        C527   1.509       .  S
C524        H528   1.085       .  S
C525        H535   1.111       .  S
C525        H536   1.110       .  S
C525        H537   1.110       .  S
C527        H538   1.110       .  S
C527        H539   1.106       .  S
C527        H540   1.111       .  S
C541        C542   1.400       .  A
C541        C546   1.403       .  A
C541        H551   1.085       .  S
C542        C547   1.479       .  S
C542        C543   1.409   1_554  A
C543        C544   1.402       .  A
C543        C548   1.506       .  S
C544        C545   1.405   1_556  A
C544        H549   1.084       .  S
C545        C546   1.420       .  A
C546        C550   1.509       .  S
C547        C552   1.410       .  A
C547        C556   1.401   1_554  A
C548        H564   1.110       .  S
C548        H565   1.110       .  S
C548        H566   1.111       .  S
C550        H561   1.110       .  S
C550        H562   1.111       .  S
C550        H563   1.105       .  S
C552        C553   1.403       .  A
C552        C557   1.506       .  S
C553        C554   1.404       .  A
C553        H558   1.084       .  S
C554        C555   1.416   1_554  A
C555        C556   1.403       .  A
C555        C559   1.508       .  S
C556        H560   1.084       .  S
C557        H567   1.111       .  S
C557        H568   1.110       .  S
C557        H569   1.110       .  S
C559        H570   1.111       .  S
C559        H571   1.111       .  S
C559        H572   1.109       .  S
C573        C574   1.399   1_554  A
C573        C578   1.403       .  A
C573        H583   1.085       .  S
C574        C579   1.478       .  S
C574        C575   1.410       .  A
C575        C576   1.403       .  A
C575        C580   1.506       .  S
C576        C577   1.405       .  A
C576        H581   1.084       .  S
C577        C578   1.419   1_556  A
C578        C582   1.509       .  S
C579        C584   1.410       .  A
C579        C588   1.401   1_556  A
C580        H596   1.110       .  S
C580        H597   1.110       .  S
C580        H598   1.111       .  S
C582        H593   1.111       .  S
C582        H594   1.110       .  S
C582        H595   1.106       .  S
C584        C585   1.402       .  A
C584        C589   1.507       .  S
C585        C586   1.404       .  A
C585        H590   1.084       .  S
C586        C587   1.417   1_556  A
C587        C588   1.403       .  A
C587        C591   1.509       .  S
C588        H592   1.085       .  S
C589        H599   1.111       .  S
C589        H600   1.110       .  S
C589        H601   1.110       .  S
C591        H602   1.110       .  S
C591        H603   1.106       .  S
C591        H604   1.111       .  S
C605        C606   1.400   1_556  A
C605        C610   1.403       .  A
C605        H615   1.085       .  S
C606        C611   1.478       .  S
C606        C607   1.410       .  A
C607        C608   1.403       .  A
C607        C612   1.506       .  S
C608        C609   1.405       .  A
C608        H613   1.084       .  S
C609        C610   1.418   1_554  A
C610        C614   1.509       .  S
C611        C616   1.410       .  A
C611        C620   1.400   1_554  A
C612        H628   1.110       .  S
C612        H629   1.110       .  S
C612        H630   1.111       .  S
C614        H625   1.111       .  S
C614        H626   1.110       .  S
C614        H627   1.106       .  S
C616        C617   1.403       .  A
C616        C621   1.507       .  S
C617        C618   1.404       .  A
C617        H622   1.084       .  S
C618        C619   1.417   1_554  A
C619        C620   1.403       .  A
C619        C623   1.509       .  S
C620        H624   1.085       .  S
C621        H631   1.111       .  S
C621        H632   1.110       .  S
C621        H633   1.110       .  S
C623        H634   1.110       .  S
C623        H635   1.106       .  S
C623        H636   1.111       .  S
