geometry optimzed in LAMMPS
_audit_creation_date              2020-11-30 
_audit_creation_method            'lammps2cif' 
_symmetry_space_group_name_H-M    'P1' 
_symmetry_Int_Tables_number       1 
_symmetry_cell_setting            triclinic 
loop_ 
_symmetry_equiv_pos_as_xyz 
  x,y,z 
_cell_length_a                    33.464876056757305 
_cell_length_b                    33.41455101229471 
_cell_length_c                    50.29352798131087 
_cell_angle_alpha                 89.8727991300325 
_cell_angle_beta                  90.07387188802858 
_cell_angle_gamma                 120.6006574762454 
loop_ 
_atom_site_label 
_atom_site_type_symbol 
_atom_site_fract_x 
_atom_site_fract_y 
_atom_site_fract_z 
_atom_site_charge 
Zn1        Zn  0.17861262  0.80793330  0.10266200     1.49720
Zn2        Zn  0.22632554  0.74414749  0.10738635     1.49360
Zn3        Zn  0.17407262  0.74508926  0.05939037     1.49110
Zn4        Zn  0.27122317  0.83423458  0.06909305     1.49480
O5          O  0.21466083  0.78465596  0.08546305    -1.84040
O6          O  0.17966329  0.79534770  0.14175486    -0.74670
O7          O  0.20482265  0.67941738  0.09088750    -0.74490
O8          O  0.10842810  0.72194204  0.06625643    -0.74010
O9          O  0.20831684  0.74803349  0.14484566    -0.74690
O10         O  0.11536962  0.78579304  0.08362289    -0.74280
O11         O  0.18125288  0.69190781  0.05257131    -0.74870
O12         O  0.26222856  0.83250404  0.02821660    -0.74260
O13         O  0.29433953  0.77382363  0.11152223    -0.75020
O14         O  0.18750659  0.77786094  0.02600319    -0.74410
O15         O  0.32846718  0.83138012  0.08215670    -0.74870
O16         O  0.28143177  0.89491285  0.08407236    -0.74780
O17         O  0.21491763  0.87747906  0.10342529    -0.74570
C18         C  0.19640052  0.77510377  0.15546365     0.77220
C19         C  0.19140652  0.66734624  0.06688408     0.77710
C20         C  0.09276737  0.74895866  0.06966092     0.76670
C21         C  0.22432417  0.80910790  0.01512085     0.77040
C22         C  0.33075540  0.80682053  0.10101590     0.78180
C23         C  0.25695689  0.90672818  0.09764717     0.77230
Zn24       Zn  0.17831992  0.74949487  0.30414229     1.49720
Zn25       Zn  0.22469613  0.74292123  0.35512005     1.49360
Zn26       Zn  0.27621768  0.83917305  0.32141918     1.49110
Zn27       Zn  0.17897274  0.80800020  0.35160173     1.49480
O28         O  0.21573397  0.78586480  0.33321386    -1.84040
O29         O  0.17382337  0.68849213  0.30043303    -0.74670
O30         O  0.29208316  0.76683109  0.35838770    -0.74490
O31         O  0.27604534  0.84399152  0.27993234    -0.74010
O32         O  0.19767043  0.67693318  0.33914707    -0.74690
O33         O  0.20654225  0.78192371  0.27203455    -0.74280
O34         O  0.33111004  0.83282190  0.33592765    -0.74870
O35         O  0.21310894  0.87765783  0.35341203    -0.74260
O36         O  0.20993299  0.74956150  0.39320998    -0.75020
O37         O  0.28380187  0.89809723  0.33912242    -0.74410
O38         O  0.17853084  0.79445115  0.39019978    -0.74870
O39         O  0.11363743  0.78345900  0.33613755    -0.74780
O40         O  0.11596162  0.74162969  0.30264056    -0.74570
C41         C  0.18211091  0.66326970  0.31563452     0.77220
C42         C  0.33037880  0.80190257  0.35132776     0.77710
C43         C  0.24337860  0.81711245  0.26400937     0.76670
C44         C  0.25596705  0.90785087  0.35094311     0.77040
C45         C  0.19577818  0.77479657  0.40382374     0.78180
C46         C  0.09508986  0.75775531  0.31579969     0.77230
Zn47       Zn  0.64768925  0.82486186  0.18320913     1.49720
Zn48       Zn  0.53842535  0.78838530  0.18960046     1.49360
Zn49       Zn  0.58876296  0.83236921  0.13951155     1.49110
Zn50       Zn  0.57185585  0.73246795  0.15240158     1.49480
O51         O  0.58662852  0.79269981  0.16668053    -1.84040
O52         O  0.63537128  0.82457470  0.22173873    -0.74670
O53         O  0.49657570  0.80987723  0.17260786    -0.74490
O54         O  0.63743254  0.89643701  0.14500336    -0.74010
O55         O  0.56447204  0.81382077  0.22552545    -0.74690
O56         O  0.69000787  0.89189536  0.16975410    -0.74280
O57         O  0.52924397  0.83042314  0.13314408    -0.74870
O58         O  0.56966957  0.73715968  0.11096621    -0.74260
O59         O  0.49598059  0.72204920  0.19753136    -0.75020
O60         O  0.60305224  0.81415445  0.10652014    -0.74410
O61         O  0.51057804  0.68019304  0.16939308    -0.74870
O62         O  0.62225493  0.71932703  0.16585167    -0.74780
O63         O  0.67802699  0.78605107  0.18258461    -0.74570
C64         C  0.60154811  0.81881581  0.23595252     0.77220
C65         C  0.49602417  0.82210327  0.14862666     0.77710
C66         C  0.67731968  0.91514995  0.15553097     0.76670
C67         C  0.58656499  0.77411940  0.09662857     0.77040
C68         C  0.48670412  0.68290750  0.18847310     0.78180
C69         C  0.66116732  0.74290314  0.17786634     0.77230
Zn70       Zn  0.57651780  0.83113868  0.42996755     1.49720
Zn71       Zn  0.57488758  0.73636464  0.44330588     1.49360
Zn72       Zn  0.52655581  0.73889448  0.39356646     1.49110
Zn73       Zn  0.63977148  0.79994223  0.39837601     1.49480
O74         O  0.57958894  0.77785194  0.41603966    -1.84040
O75         O  0.58189290  0.83169019  0.47136248    -0.74670
O76         O  0.51423252  0.67839509  0.44691457    -0.74490
O77         O  0.48905917  0.76916272  0.38925518    -0.74010
O78         O  0.58406575  0.76656943  0.47670120    -0.74690
O79         O  0.51711887  0.82927904  0.41697734    -0.74280
O80         O  0.48100665  0.67399079  0.40844976    -0.74870
O81         O  0.62509217  0.78688658  0.35968371    -0.74260
O82         O  0.62320218  0.72054460  0.44156100    -0.75020
O83         O  0.54831446  0.74012033  0.35670136    -0.74410
O84         O  0.67672168  0.77075700  0.41370609    -0.74870
O85         O  0.67885076  0.87042936  0.39668523    -0.74780
O86         O  0.62793122  0.88916633  0.41163307    -0.74570
C87         C  0.58520024  0.80208134  0.48606731     0.77220
C88         C  0.48005869  0.65702566  0.43132192     0.77710
C89         C  0.48799720  0.80339429  0.39928360     0.76670
C90         C  0.58786917  0.76581752  0.34606069     0.77040
C91         C  0.66253495  0.73758966  0.43057066     0.78180
C92         C  0.66529194  0.89960744  0.39918902     0.77230
Zn93       Zn  0.15971882  0.40768328  0.02281216     1.49720
Zn94       Zn  0.20855712  0.46176100  0.47490000     1.49360
Zn95       Zn  0.25384049  0.41759872  0.01172655     1.49110
Zn96       Zn  0.16034673  0.34952884  0.47871222     1.49480
O97         O  0.19797805  0.40924128  0.49553142    -1.84040
O98         O  0.17405771  0.47032659  0.03373272    -0.74670
O99         O  0.27597047  0.49985665  0.46779675    -0.74490
O100        O  0.24573019  0.41984242  0.05260041    -0.74010
O101        O  0.19265600  0.50550777  0.49458183    -0.74690
O102        O  0.16911385  0.37894533  0.05386626    -0.74280
O103        O  0.31074732  0.47659420  0.99626730    -0.74870
O104        O  0.19653852  0.31640971  0.47663162    -0.74260
O105        O  0.18254794  0.43987175  0.43857480    -0.75020
O106        O  0.26118566  0.36395888  0.99872799    -0.74410
O107        O  0.15766347  0.36377087  0.44054948    -0.74870
O108        O  0.09694978  0.31029319  0.49758281    -0.74780
O109        O  0.09404764  0.37026477  0.01380263    -0.74570
C110        C  0.18460189  0.50556737  0.01942879     0.77220
C111        C  0.31271864  0.50342861  0.47746361     0.77710
C112        C  0.20766927  0.39998742  0.06584254     0.76670
C113        C  0.23748648  0.32820556  0.48401306     0.77040
C114        C  0.17073702  0.40107562  0.42743135     0.78180
C115        C  0.07568082  0.32685285  0.01041753     0.77230
Zn116      Zn  0.25219336  0.47012917  0.27419116     1.49720
Zn117      Zn  0.16273001  0.42318374  0.23507431     1.49360
Zn118      Zn  0.25819787  0.42518665  0.22486786     1.49110
Zn119      Zn  0.19184638  0.35676401  0.26722721     1.49480
O120        O  0.21449922  0.41844335  0.25077167    -1.84040
O121        O  0.22033963  0.50540908  0.27997801    -0.74670
O122        O  0.16582718  0.42079655  0.19335800    -0.74490
O123        O  0.31855452  0.48335179  0.22348604    -0.74010
O124        O  0.16539203  0.48290420  0.24906982    -0.74690
O125        O  0.31715255  0.51848668  0.26018908    -0.74280
O126        O  0.23246657  0.42220716  0.19100946    -0.74870
O127        O  0.21486520  0.31620833  0.24816395    -0.74260
O128        O  0.10153995  0.37013845  0.25080088    -0.75020
O129        O  0.26831903  0.37392482  0.22403869    -0.74410
O130        O  0.12182334  0.32370374  0.27116262    -0.74870
O131        O  0.20977060  0.36777529  0.30582906    -0.74780
O132        O  0.25011583  0.44495500  0.31005139    -0.74570
C133        C  0.18829007  0.50884429  0.26872548     0.77220
C134        C  0.19815476  0.42069095  0.17971005     0.77710
C135        C  0.33712986  0.51824509  0.23864563     0.76670
C136        C  0.24870764  0.33214354  0.23171035     0.77040
C137        C  0.09158298  0.33474512  0.26530991     0.78180
C138        C  0.22902673  0.40436265  0.32013242     0.77230
Zn139      Zn  0.42478248  0.15341091  0.18308045     1.49720
Zn140      Zn  0.36041245  0.18172233  0.14799677     1.49360
Zn141      Zn  0.42347649  0.24484998  0.19430817     1.49110
Zn142      Zn  0.47240711  0.24421518  0.14532285     1.49480
O143        O  0.41960827  0.20441330  0.16730887    -1.84040
O144        O  0.37471403  0.09519790  0.16589255    -0.74670
O145        O  0.32193593  0.21080187  0.16235064    -0.74490
O146        O  0.41178951  0.21490541  0.22776987    -0.74010
O147        O  0.32363564  0.11144937  0.14804122    -0.74690
O148        O  0.41567323  0.15088166  0.22441715    -0.74280
O149        O  0.37430600  0.25789965  0.19162505    -0.74870
O150        O  0.51629585  0.30961954  0.15936350    -0.74260
O151        O  0.37626892  0.19259152  0.10862288    -0.75020
O152        O  0.48320932  0.30346451  0.19811770    -0.74410
O153        O  0.45264388  0.24123968  0.10829185    -0.74870
O154        O  0.51039561  0.21530758  0.14157035    -0.74780
O155        O  0.48453006  0.15600145  0.16994075    -0.74570
C156        C  0.33778643  0.08316694  0.15264309     0.77220
C157        C  0.33581542  0.24273378  0.17999547     0.77710
C158        C  0.40947245  0.17950481  0.23819075     0.76670
C159        C  0.51692197  0.32580388  0.18235065     0.77040
C160        C  0.41476590  0.21518145  0.09620370     0.78180
C161        C  0.51240531  0.18164331  0.15164110     0.77230
Zn162      Zn  0.43256030  0.15884264  0.42949129     1.49720
Zn163      Zn  0.36160905  0.18670176  0.40162623     1.49360
Zn164      Zn  0.42803843  0.24810649  0.44617742     1.49110
Zn165      Zn  0.47427503  0.25207723  0.39406899     1.49480
O166        O  0.42382176  0.21015516  0.41738532    -1.84040
O167        O  0.38057837  0.10018520  0.41309138    -0.74670
O168        O  0.32496249  0.21692305  0.41803486    -0.74490
O169        O  0.42328951  0.21635070  0.47831101    -0.74010
O170        O  0.32532355  0.11542337  0.40120114    -0.74690
O171        O  0.43209792  0.15567579  0.47101149    -0.74280
O172        O  0.37813352  0.26092288  0.44746568    -0.74870
O173        O  0.51914671  0.31683246  0.40993320    -0.74260
O174        O  0.37261641  0.19798221  0.36233905    -0.75020
O175        O  0.48733037  0.30744296  0.44970457    -0.74410
O176        O  0.44893461  0.24703246  0.35736821    -0.74870
O177        O  0.51450447  0.22599163  0.38716318    -0.74780
O178        O  0.49122643  0.16386070  0.41249676    -0.74570
C179        C  0.34122009  0.08786244  0.40267177     0.77220
C180        C  0.33949239  0.24759762  0.43650905     0.77710
C181        C  0.42721097  0.18297231  0.48675103     0.76670
C182        C  0.52041199  0.33074231  0.43374562     0.77040
C183        C  0.40871653  0.21946603  0.34783689     0.78180
C184        C  0.51807851  0.19172914  0.39452867     0.77230
Zn185      Zn  0.75151150  0.18349070  0.11504744     1.49720
Zn186      Zn  0.80177678  0.16723932  0.06742295     1.49360
Zn187      Zn  0.74561571  0.22111650  0.06168087     1.49110
Zn188      Zn  0.84217686  0.26729967  0.09559233     1.49480
O189        O  0.78604029  0.21041113  0.08398238    -1.84040
O190        O  0.74974666  0.12597187  0.12358169    -0.74670
O191        O  0.78745049  0.16401644  0.02809390    -0.74490
O192        O  0.67953752  0.19849436  0.07677055    -0.74010
O193        O  0.77389307  0.10495183  0.08811957    -0.74690
O194        O  0.68837559  0.17132531  0.11512034    -0.74280
O195        O  0.75307660  0.20609240  0.02411430    -0.74870
O196        O  0.83885382  0.32523939  0.08357976    -0.74260
O197        O  0.87107955  0.19642607  0.06461060    -0.75020
O198        O  0.77460692  0.28850319  0.05939498    -0.74410
O199        O  0.89589609  0.26967360  0.07630291    -0.74870
O200        O  0.85179715  0.26094937  0.13596676    -0.74780
O201        O  0.77704472  0.22407562  0.14537863    -0.74570
C202        C  0.75596226  0.09652256  0.11142084     0.77220
C203        C  0.77384259  0.18666817  0.01399584     0.77710
C204        C  0.66502147  0.18184301  0.10000157     0.76670
C205        C  0.80904669  0.32586756  0.06779161     0.77040
C206        C  0.90298011  0.23895222  0.06605856     0.78180
C207        C  0.81856828  0.24146209  0.15267118     0.77230
Zn208      Zn  0.83936587  0.25804385  0.34669868     1.49720
Zn209      Zn  0.74652235  0.16045947  0.35771857     1.49360
Zn210      Zn  0.74734520  0.21179306  0.30905330     1.49110
Zn211      Zn  0.81040351  0.16371306  0.31244374     1.49480
O212        O  0.78780667  0.20001745  0.33111631    -1.84040
O213        O  0.83803725  0.25011858  0.38848577    -0.74670
O214        O  0.69035684  0.16422295  0.36263460    -0.74490
O215        O  0.77487902  0.27924112  0.30657253    -0.74010
O216        O  0.77673919  0.17880753  0.39136127    -0.74690
O217        O  0.83616582  0.31571834  0.33281964    -0.74280
O218        O  0.68125047  0.18820900  0.32355837    -0.74870
O219        O  0.79829166  0.16589460  0.27319196    -0.74260
O220        O  0.72872698  0.09522819  0.35420260    -0.75020
O221        O  0.75458309  0.19881041  0.27121431    -0.74410
O222        O  0.78265081  0.09626487  0.32803562    -0.74870
O223        O  0.88091950  0.20013048  0.31127181    -0.74780
O224        O  0.90023058  0.26746475  0.33076803    -0.74570
C225        C  0.81047619  0.21372452  0.40210220     0.77220
C226        C  0.66686722  0.17410392  0.34719236     0.77710
C227        C  0.80869674  0.31674693  0.31538836     0.76670
C228        C  0.77966167  0.18498609  0.26017080     0.77040
C229        C  0.74804483  0.07483367  0.34388284     0.78180
C230        C  0.91103427  0.24212594  0.31705858     0.77230
Zn231      Zn  0.78802382  0.52925984  0.47837424     1.49720
Zn232      Zn  0.83875803  0.58144521  0.02856421     1.49360
Zn233      Zn  0.83422591  0.64012262  0.48192660     1.49110
Zn234      Zn  0.74053703  0.57188776  0.01531732     1.49480
O235        O  0.79948133  0.58075261  0.50101151    -1.84040
O236        O  0.81119895  0.48799089  0.49368325    -0.74670
O237        O  0.90137642  0.63514439  0.02748031    -0.74490
O238        O  0.82580683  0.62499149  0.44274285    -0.74010
O239        O  0.84098812  0.52367912  0.03200951    -0.74690
O240        O  0.80145425  0.54948284  0.44021657    -0.74280
O241        O  0.90180743  0.68152472  0.49558916    -0.74870
O242        O  0.73155385  0.62087948  0.99716894    -0.74260
O243        O  0.81548846  0.58886339  0.06184087    -0.75020
O244        O  0.80124366  0.67612107  0.48330020    -0.74410
O245        O  0.74553020  0.58024426  0.05661765    -0.74870
O246        O  0.68363092  0.50964502  0.00241411    -0.74780
O247        O  0.72059312  0.48681078  0.47576264    -0.74570
C248        C  0.82829334  0.48935442  0.01661141     0.77220
C249        C  0.92163660  0.67305765  0.01474110     0.77710
C250        C  0.80909906  0.58733689  0.42948556     0.76670
C251        C  0.75774476  0.65958448  0.48544997     0.77040
C252        C  0.78007871  0.58787688  0.07129412     0.78180
C253        C  0.68297041  0.48150887  0.48496820     0.77230
Zn254      Zn  0.83067050  0.63775582  0.23517030     1.49720
Zn255      Zn  0.82630771  0.57196194  0.28092448     1.49360
Zn256      Zn  0.73288903  0.56827841  0.26343803     1.49110
Zn257      Zn  0.78420869  0.52591183  0.22906421     1.49480
O258        O  0.79265494  0.57625449  0.25175592    -1.84040
O259        O  0.89418839  0.67697923  0.25482263    -0.74670
O260        O  0.80094149  0.58096261  0.31307267    -0.74490
O261        O  0.72438828  0.61723418  0.24479754    -0.74010
O262        O  0.89060399  0.62257950  0.28180897    -0.74690
O263        O  0.79478844  0.67205037  0.23192911    -0.74280
O264        O  0.73300591  0.57540913  0.30451619    -0.74870
O265        O  0.71712633  0.48400409  0.22374246    -0.74260
O266        O  0.82458276  0.51196896  0.28506815    -0.75020
O267        O  0.67855821  0.50731857  0.24886450    -0.74410
O268        O  0.80758241  0.48406352  0.24423827    -0.74870
O269        O  0.80235202  0.54995831  0.19210044    -0.74780
O270        O  0.83450167  0.62687124  0.19596931    -0.74570
C271        C  0.91185823  0.66385667  0.27308401     0.77220
C272        C  0.76533694  0.58163951  0.32063321     0.77710
C273        C  0.75112722  0.65596465  0.23332928     0.76670
C274        C  0.67909064  0.47964231  0.23157641     0.77040
C275        C  0.81795609  0.48091004  0.26831416     0.78180
C276        C  0.81744013  0.59006695  0.18188307     0.77230
C277        C  0.81463868  0.62818181  0.38677930    -0.09070
C278        C  0.79361062  0.58681747  0.40170373     0.07130
C279        C  0.75403285  0.54723351  0.39085190    -0.02840
C280        C  0.73984484  0.54833167  0.36482685    -0.07290
C281        C  0.76371953  0.58832519  0.34925362     0.06240
C282        C  0.79989118  0.62911352  0.36084276    -0.02310
Br283      Br  0.83240189  0.68590302  0.34086461    -0.02010
H284        H  0.84343451  0.65961194  0.39499558     0.10150
H285        H  0.71232436  0.51662445  0.35601673     0.08170
Br286      Br  0.71654130  0.49039868  0.41005242    -0.02440
C287        C  0.76389800  0.55825685  0.14354744    -0.09070
C288        C  0.80752249  0.59254951  0.15348021     0.07130
C289        C  0.83710559  0.63009949  0.13697542    -0.02840
C290        C  0.82411240  0.63104298  0.11064902    -0.07290
C291        C  0.78189266  0.59505757  0.10021510     0.06240
C292        C  0.75089469  0.55936786  0.11721964    -0.02310
Br293      Br  0.69255428  0.50921821  0.10481956    -0.02010
H294        H  0.73974326  0.53012014  0.15631761     0.10150
H295        H  0.84881677  0.65825130  0.09758175     0.08170
Br296      Br  0.89747691  0.67821071  0.14830846    -0.02440
C297        C  0.78813790  0.35645070  0.28058953    -0.09070
C298        C  0.81519545  0.36079916  0.30323979     0.07130
C299        C  0.84660666  0.40610362  0.31252458    -0.02840
C300        C  0.84852683  0.44482771  0.30003382    -0.07290
C301        C  0.82016228  0.43987892  0.27799687     0.06240
C302        C  0.79015105  0.39485187  0.26814273    -0.02310
Br303      Br  0.74740721  0.38216700  0.23936756    -0.02010
H304        H  0.76414475  0.32251772  0.27245127     0.10150
H305        H  0.87179132  0.47913454  0.30799882     0.08170
Br306      Br  0.88668714  0.41794007  0.34246018    -0.02440
C307        C  0.85876462  0.40950668  0.05408757    -0.09070
C308        C  0.81440127  0.36973287  0.05688868     0.07130
C309        C  0.77580214  0.37034047  0.04558050    -0.02840
C310        C  0.78247898  0.40837428  0.03061412    -0.07290
C311        C  0.82653213  0.44766882  0.02763539     0.06240
C312        C  0.86484276  0.44867898  0.04003537    -0.02310
Br313      Br  0.92595866  0.50227869  0.03760028    -0.02010
H314        H  0.88884322  0.40987374  0.06236951     0.10150
H315        H  0.75242329  0.40833265  0.02248121     0.08170
Br316      Br  0.71211875  0.32219767  0.05104810    -0.02440
C317        C  0.78432336  0.15892533  0.47014015    -0.09070
C318        C  0.78708301  0.19495056  0.48558709     0.07130
C319        C  0.80738940  0.24012270  0.47434464    -0.02840
C320        C  0.81970913  0.24726490  0.44736915    -0.07290
C321        C  0.81301672  0.21020159  0.43132602     0.06240
C322        C  0.79714821  0.16609632  0.44334370    -0.02310
Br323      Br  0.79078403  0.11347862  0.42400766    -0.02010
H324        H  0.77123900  0.12475780  0.47880191     0.10150
H325        H  0.83220445  0.28129390  0.43865744     0.08170
Br326      Br  0.82140254  0.29400715  0.99503513    -0.02440
C327        C  0.81494920  0.24688939  0.22632224    -0.09070
C328        C  0.79412555  0.19922293  0.23246336     0.07130
C329        C  0.79118794  0.16823215  0.21274023    -0.02840
C330        C  0.80640278  0.18478046  0.18695620    -0.07290
C331        C  0.82446792  0.23197100  0.18039847     0.06240
C332        C  0.83002253  0.26332951  0.20051223    -0.02310
Br333      Br  0.85454323  0.32795715  0.19300423    -0.02010
H334        H  0.81880380  0.27140403  0.24163032     0.10150
H335        H  0.80029271  0.15991946  0.17138155     0.08170
Br336      Br  0.76147086  0.10262384  0.21921602    -0.02440
C337        C  0.60750696  0.19777352  0.34476557    -0.09070
C338        C  0.62446621  0.17243546  0.35788572     0.07130
C339        C  0.60376583  0.15083852  0.38250913    -0.02840
C340        C  0.56881231  0.15683537  0.39372180    -0.07290
C341        C  0.55369025  0.18435012  0.38125284     0.06240
C342        C  0.57295904  0.20413152  0.35604416    -0.02310
Br343      Br  0.55482752  0.24054562  0.33514422    -0.02010
H344        H  0.62248588  0.21446994  0.32593195     0.10150
H345        H  0.55413205  0.14064944  0.41270326     0.08170
Br346      Br  0.62083546  0.11256530  0.40242208    -0.02440
C347        C  0.55797678  0.40523579  0.45937637    -0.09070
C348        C  0.56227093  0.37191254  0.44456769     0.07130
C349        C  0.60502714  0.37349495  0.44471407    -0.02840
C350        C  0.64238777  0.40793576  0.45913391    -0.07290
C351        C  0.63910353  0.44247299  0.47343813     0.06240
C352        C  0.59595400  0.44076165  0.47336844    -0.02310
Br353      Br  0.58656290  0.48619184  0.49099699    -0.02010
H354        H  0.52478804  0.40354604  0.46008314     0.10150
H355        H  0.67463553  0.40769446  0.45889931     0.08170
Br356      Br  0.61347612  0.32719168  0.42728397    -0.02440
C357        C  0.57916291  0.15161751  0.10310994    -0.09070
C358        C  0.62450797  0.18062382  0.11242056     0.07130
C359        C  0.63146903  0.20612285  0.13612303    -0.02840
C360        C  0.59376326  0.20234710  0.15008707    -0.07290
C361        C  0.54855531  0.17373831  0.14088095     0.06240
C362        C  0.54123178  0.14843765  0.11708822    -0.02310
Br363      Br  0.48014604  0.11109114  0.10245007    -0.02010
H364        H  0.57326824  0.13156933  0.08513435     0.10150
H365        H  0.59995330  0.22381144  0.16749740     0.08170
Br366      Br  0.69231618  0.24959105  0.14950119    -0.02440
C367        C  0.64066556  0.42407292  0.19444297    -0.09070
C368        C  0.63593023  0.44278297  0.21856763     0.07130
C369        C  0.59085524  0.42609624  0.22866612    -0.02840
C370        C  0.55256364  0.38999155  0.21549739    -0.07290
C371        C  0.55770495  0.36952542  0.19220838     0.06240
C372        C  0.60255063  0.38805967  0.18130804    -0.02310
Br373      Br  0.61573064  0.36470281  0.14962523    -0.02010
H374        H  0.67464768  0.43707155  0.18568270     0.10150
H375        H  0.51847347  0.37680317  0.22415028     0.08170
Br376      Br  0.57869049  0.44863821  0.26093285    -0.02440
C377        C  0.37002286  0.19006591  0.27629966    -0.09070
C378        C  0.40042834  0.17547520  0.26701276     0.07130
C379        C  0.43057847  0.17226383  0.28512887    -0.02840
C380        C  0.43280724  0.18749616  0.31126915    -0.07290
C381        C  0.40527699  0.20576571  0.31980987     0.06240
C382        C  0.37240177  0.20535990  0.30239289    -0.02310
Br383      Br  0.33374561  0.22984636  0.31246344    -0.02010
H384        H  0.34676515  0.19312873  0.26252218     0.10150
H385        H  0.45621949  0.18501215  0.32511330     0.08170
Br386      Br  0.47185251  0.15113651  0.27475491    -0.02440
C387        C  0.38559639  0.16237937  0.05687823    -0.09070
C388        C  0.41755099  0.20627799  0.06765070     0.07130
C389        C  0.45647330  0.23727592  0.05228642    -0.02840
C390        C  0.46296052  0.22401055  0.02722613    -0.07290
C391        C  0.42968529  0.18167540  0.01577956     0.06240
C392        C  0.39108415  0.15030334  0.03096649    -0.02310
Br393      Br  0.34397256  0.09227454  0.01641424    -0.02010
H394        H  0.35625713  0.13735658  0.06858407     0.10150
H395        H  0.49175887  0.24938798  0.01526176     0.08170
Br396      Br  0.49966576  0.30031548  0.06274670    -0.02440
C397        C  0.96216826  0.25360700  0.27814132    -0.09070
C398        C  0.95831668  0.26312731  0.30504889     0.07130
C399        C  0.99901031  0.29538158  0.31865348    -0.02840
C400        C  0.04197311  0.31730317  0.30538913    -0.07290
C401        C  0.04538468  0.30879867  0.27833357     0.06240
C402        C  0.00501391  0.27649938  0.26474087    -0.02310
Br403      Br  0.00694266  0.26291108  0.22792446    -0.02010
H404        H  0.93135760  0.22945502  0.26714634     0.10150
H405        H  0.07289692  0.34186464  0.31617185     0.08170
Br406      Br  0.99813658  0.30999309  0.35544159    -0.02440
C407        C  0.26257114  0.23706247  0.19755987    -0.09070
C408        C  0.30892246  0.26415214  0.18887314     0.07130
C409        C  0.33386920  0.31185770  0.19515389    -0.02840
C410        C  0.31410271  0.33080892  0.21107433    -0.07290
C411        C  0.26784354  0.30467010  0.21980221     0.06240
C412        C  0.24158619  0.25721682  0.21258200    -0.02310
Br413      Br  0.17737825  0.21913185  0.22186891    -0.02010
H414        H  0.24322244  0.20014366  0.19339026     0.10150
H415        H  0.33524799  0.36738047  0.21596442     0.08170
Br416      Br  0.39608312  0.35386637  0.18273431    -0.02440
C417        C  0.22529857  0.43888171  0.39073616    -0.09070
C418        C  0.18241883  0.40152397  0.39922777     0.07130
C419        C  0.15860362  0.36231248  0.38272340    -0.02840
C420        C  0.17679040  0.36208018  0.35775364    -0.07290
C421        C  0.21906281  0.40020540  0.34890366     0.06240
C422        C  0.24407905  0.43820952  0.36616728    -0.02310
Br423      Br  0.30478557  0.48962721  0.35795554    -0.02010
H424        H  0.24560744  0.46808376  0.40383514     0.10150
H425        H  0.15642769  0.33282672  0.34471698     0.08170
Br426      Br  0.10026639  0.30915871  0.39268080    -0.02440
C427        C  0.16295488  0.39251617  0.10702595    -0.09070
C428        C  0.20605415  0.40448993  0.09514754     0.07130
C429        C  0.24588654  0.42393863  0.11125631    -0.02840
C430        C  0.24207422  0.43128366  0.13815726    -0.07290
C431        C  0.19892761  0.41836652  0.15022390     0.06240
C432        C  0.15907974  0.39907702  0.13418391    -0.02310
Br433      Br  0.09842566  0.37932618  0.14805088    -0.02010
H434        H  0.13165736  0.37804758  0.09514035     0.10150
H435        H  0.27357736  0.44635508  0.14990877     0.08170
Br436      Br  0.30632718  0.43945222  0.09863570    -0.02440
C437        C  0.03087019  0.30919983  0.05160714    -0.09070
C438        C  0.03225923  0.29706938  0.02501817     0.07130
C439        C  0.99202654  0.26045922  0.01340804    -0.02840
C440        C  0.95034847  0.23907625  0.02791585    -0.07290
C441        C  0.94847279  0.25400756  0.05384220     0.06240
C442        C  0.98962297  0.28811203  0.06600037    -0.02310
Br443      Br  0.99141371  0.30763615  0.10209289    -0.02010
H444        H  0.06199096  0.33647780  0.06104275     0.10150
H445        H  0.91879639  0.21292590  0.01829835     0.08170
Br446      Br  0.99123957  0.24211566  0.47724101    -0.02440
C447        C  0.30930837  0.32709500  0.47436259    -0.09070
C448        C  0.26073843  0.30369668  0.47286584     0.07130
C449        C  0.23785180  0.26199769  0.45773775    -0.02840
C450        C  0.26373708  0.24470748  0.44523220    -0.07290
C451        C  0.31241805  0.26849351  0.44695233     0.06240
C452        C  0.33503658  0.31092421  0.46137604    -0.02310
Br453      Br  0.40149001  0.35153073  0.46343112    -0.02010
H454        H  0.32817600  0.35982151  0.48488100     0.10150
H455        H  0.24563069  0.21215455  0.43449298     0.08170
Br456      Br  0.17165222  0.22625008  0.45339933    -0.02440
C457        C  0.66155968  0.95526545  0.36843428    -0.09070
C458        C  0.68931917  0.94404837  0.38404055     0.07130
C459        C  0.73806251  0.97316097  0.38266086    -0.02840
C460        C  0.75776331  0.01407252  0.36714602    -0.07290
C461        C  0.72951469  0.02607199  0.35248755     0.06240
C462        C  0.68107990  0.99533282  0.35270671    -0.02310
Br463      Br  0.63973256  0.00728928  0.33223273    -0.02010
H464        H  0.62418410  0.93247448  0.36833831     0.10150
H465        H  0.79490164  0.03794433  0.36790477     0.08170
Br466      Br  0.77872550  0.96091472  0.40343635    -0.02440
C467        C  0.73583495  0.74813422  0.44997118    -0.09070
C468        C  0.69139994  0.71844491  0.43948708     0.07130
C469        C  0.67042076  0.67015775  0.44361343    -0.02840
C470        C  0.69231795  0.65261197  0.45928777    -0.07290
C471        C  0.73583662  0.68208490  0.47087126     0.06240
C472        C  0.75836026  0.73033535  0.46542380    -0.02310
Br473      Br  0.81797319  0.77389421  0.48002438    -0.02010
H474        H  0.75188626  0.78540287  0.44745859     0.10150
H475        H  0.67526109  0.61530087  0.46207576     0.08170
Br476      Br  0.61124273  0.62628363  0.42843400    -0.02440
C477        C  0.43956198  0.59810988  0.46729649    -0.09070
C478        C  0.43843832  0.61351196  0.44123412     0.07130
C479        C  0.39644776  0.58932647  0.42682707    -0.02840
C480        C  0.35702073  0.55280044  0.43892226    -0.07290
C481        C  0.35758439  0.53919017  0.46541476     0.06240
C482        C  0.39992259  0.56169720  0.47941801    -0.02310
Br483      Br  0.40547004  0.54745961  0.01576312    -0.02010
H484        H  0.47115502  0.61562951  0.47892626     0.10150
H485        H  0.32514823  0.53539667  0.42750630     0.08170
Br486      Br  0.38894299  0.60463388  0.39101860    -0.02440
C487        C  0.76193226  0.02583241  0.12071664    -0.09070
C488        C  0.74005403  0.05169239  0.12517738     0.07130
C489        C  0.70264270  0.03442242  0.14349318    -0.02840
C490        C  0.68762238  0.99223977  0.15624283    -0.07290
C491        C  0.70725754  0.96506259  0.15051815     0.06240
C492        C  0.74554394  0.98250670  0.13316465    -0.02310
Br493      Br  0.77334283  0.94644561  0.12407041    -0.02010
H494        H  0.79086760  0.03865766  0.10703006     0.10150
H495        H  0.65718095  0.97832590  0.16889038     0.08170
Br496      Br  0.66514872  0.06220557  0.14965099    -0.02440
C497        C  0.73096713  0.74738210  0.19959095    -0.09070
C498        C  0.68578699  0.71959786  0.18910942     0.07130
C499        C  0.66324056  0.67091364  0.19335300    -0.02840
C500        C  0.68512070  0.65192144  0.20818571    -0.07290
C501        C  0.72970873  0.67975873  0.21908623     0.06240
C502        C  0.75293385  0.72810228  0.21426662    -0.02310
Br503      Br  0.81329859  0.77015968  0.22858284    -0.02010
H504        H  0.74911047  0.78476138  0.19700756     0.10150
H505        H  0.66695331  0.61457656  0.21102290     0.08170
Br506      Br  0.60175489  0.62740453  0.18082362    -0.02440
C507        C  0.44763491  0.59810540  0.20011291    -0.09070
C508        C  0.44838284  0.64050578  0.20151850     0.07130
C509        C  0.41402182  0.64233469  0.21720362    -0.02840
C510        C  0.38086840  0.60295312  0.23097733    -0.07290
C511        C  0.37945639  0.56051853  0.22902147     0.06240
C512        C  0.41350641  0.55833715  0.21347899    -0.02310
Br513      Br  0.41567375  0.50220217  0.21025558    -0.02010
H514        H  0.47386903  0.59584945  0.18871974     0.10150
H515        H  0.35404524  0.60483402  0.24198912     0.08170
Br516      Br  0.40674966  0.69577920  0.21933670    -0.02440
C517        C  0.56274530  0.80121770  0.27966646    -0.09070
C518        C  0.60238713  0.81126699  0.26494486     0.07130
C519        C  0.63726666  0.80542618  0.27736472    -0.02840
C520        C  0.63085469  0.78858628  0.30340864    -0.07290
C521        C  0.59030978  0.77687862  0.31755746     0.06240
C522        C  0.55629676  0.78411984  0.30550548    -0.02310
Br523      Br  0.50117788  0.77453023  0.32322019    -0.02010
H524        H  0.53563484  0.80557543  0.27085029     0.10150
H525        H  0.65792525  0.78474045  0.31274701     0.08170
Br526      Br  0.69434972  0.81842072  0.26060399    -0.02440
C527        C  0.62609673  0.79426102  0.05353314    -0.09070
C528        C  0.58415094  0.77347992  0.06764345     0.07130
C529        C  0.54431989  0.76936119  0.05539882    -0.02840
C530        C  0.54660791  0.78482525  0.02926862    -0.07290
C531        C  0.58837222  0.80484384  0.01501245     0.06240
C532        C  0.62827937  0.80931379  0.02735012    -0.02310
Br533      Br  0.68612883  0.83430512  0.00863877    -0.02010
H534        H  0.65757121  0.80010194  0.06321943     0.10150
H535        H  0.51514607  0.77908812  0.01961158     0.08170
Br536      Br  0.48659930  0.74495704  0.07417695    -0.02440
C537        C  0.01061518  0.71516554  0.32310657    -0.09070
C538        C  0.04804130  0.74450500  0.30692595     0.07130
C539        C  0.03968369  0.75256736  0.28048147    -0.02840
C540        C  0.99450749  0.72877918  0.27005350    -0.07290
C541        C  0.95742039  0.69590895  0.28554035     0.06240
C542        C  0.96569717  0.69060916  0.31272836    -0.02310
Br543      Br  0.91812066  0.64878562  0.33693118    -0.02010
H544        H  0.01675895  0.70860981  0.34338814     0.10150
H545        H  0.98895079  0.73376232  0.24938097     0.08170
Br546      Br  0.08948732  0.79424984  0.25761708    -0.02440
C547        C  0.27599230  0.00511790  0.39922350    -0.09070
C548        C  0.31675869  0.04250919  0.38887873     0.07130
C549        C  0.33584115  0.03598031  0.36544738    -0.02840
C550        C  0.31466597  0.99259089  0.35292355    -0.07290
C551        C  0.27434287  0.95450860  0.36339204     0.06240
C552        C  0.25502170  0.96119822  0.38699468    -0.02310
Br553      Br  0.20317682  0.91133617  0.40540747    -0.02010
H554        H  0.26147534  0.00958915  0.41744385     0.10150
H555        H  0.33034108  0.98848245  0.33508662     0.08170
Br556      Br  0.39134684  0.08554107  0.34977492    -0.02440
C557        C  0.36819716  0.78139229  0.38712383    -0.09070
C558        C  0.37344343  0.80665964  0.36353921     0.07130
C559        C  0.41879834  0.83497062  0.35330636    -0.02840
C560        C  0.45687133  0.83659506  0.36640699    -0.07290
C561        C  0.45077762  0.81117159  0.38991413     0.06240
C562        C  0.40608613  0.78411626  0.40040965    -0.02310
Br563      Br  0.39494084  0.74823886  0.43230764    -0.02010
H564        H  0.33411547  0.75862360  0.39540704     0.10150
H565        H  0.49108071  0.85609580  0.35755847     0.08170
Br566      Br  0.43067850  0.86826008  0.32039312    -0.02440
C567        C  0.17923838  0.61669646  0.27624825    -0.09070
C568        C  0.17673469  0.61957390  0.30419389     0.07130
C569        C  0.17258446  0.58246224  0.31977390    -0.02840
C570        C  0.17372342  0.54539055  0.30749721    -0.07290
C571        C  0.17841077  0.54391069  0.27975427     0.06240
C572        C  0.18031380  0.57960450  0.26406411    -0.02310
Br573      Br  0.18992643  0.58217587  0.22634084    -0.02010
H574        H  0.18279760  0.64471074  0.26368573     0.10150
H575        H  0.17211136  0.51794116  0.31981557     0.08170
Br576      Br  0.16482841  0.57975523  0.35766405    -0.02440
C577        C  0.04628550  0.71901576  0.02867002    -0.09070
C578        C  0.05074844  0.73840888  0.05415314     0.07130
C579        C  0.01486887  0.74488291  0.06360237    -0.02840
C580        C  0.97409613  0.72847715  0.04847548    -0.07290
C581        C  0.96888480  0.70649495  0.02375982     0.06240
C582        C  0.00611863  0.70343223  0.01352609    -0.02310
Br583      Br  0.00132030  0.67280590  0.48042390    -0.02010
H584        H  0.07376369  0.71437847  0.02074036     0.10150
H585        H  0.94489471  0.72947120  0.05701427     0.08170
Br586      Br  0.01715752  0.77004524  0.09816399    -0.02440
C587        C  0.24946684  0.97046584  0.11843139    -0.09070
C588        C  0.27840986  0.95410243  0.10928926     0.07130
C589        C  0.32641535  0.98048815  0.11514614    -0.02840
C590        C  0.34385437  0.02118389  0.13001485    -0.07290
C591        C  0.31500290  0.03728637  0.13931907     0.06240
C592        C  0.26730430  0.01170736  0.13314517    -0.02310
Br593      Br  0.22446421  0.02962846  0.14556756    -0.02010
H594        H  0.21248454  0.95058077  0.11459464     0.10150
H595        H  0.38080271  0.04086042  0.13402762     0.08170
Br596      Br  0.37074069  0.96269668  0.10521912    -0.02440
C597        C  0.37762301  0.81212667  0.14043856    -0.09070
C598        C  0.37570379  0.81692047  0.11272254     0.07130
C599        C  0.41521845  0.82808340  0.09748524    -0.02840
C600        C  0.45451853  0.83167176  0.10986200    -0.07290
C601        C  0.45571434  0.82440870  0.13751819     0.06240
C602        C  0.41686553  0.81602539  0.15291511    -0.02310
Br603      Br  0.41393558  0.80912751  0.19091422    -0.02010
H604        H  0.34784885  0.80460098  0.15259109     0.10150
H605        H  0.48371858  0.83850872  0.09741387     0.08170
Br606      Br  0.41611069  0.83461722  0.05955665    -0.02440
C607        C  0.17426604  0.57373375  0.01687500    -0.09070
C608        C  0.18686818  0.54674101  0.03195500     0.07130
C609        C  0.20068237  0.55933774  0.05872261    -0.02840
C610        C  0.20119736  0.59806666  0.06976008    -0.07290
C611        C  0.18827824  0.62515200  0.05472544     0.06240
C612        C  0.17449784  0.61224014  0.02777269    -0.02310
Br613      Br  0.15519616  0.64419619  0.00369477    -0.02010
H614        H  0.16345733  0.56442967  0.49638258     0.10150
H615        H  0.21246529  0.60735545  0.09016531     0.08170
Br616      Br  0.22222204  0.52726825  0.08096350    -0.02440
C617        C  0.25657259  0.81369496  0.47046384    -0.09070
C618        C  0.22178959  0.81292724  0.48613169     0.07130
C619        C  0.17984270  0.80375896  0.47395072    -0.02840
C620        C  0.17118321  0.78997517  0.44736113    -0.07290
C621        C  0.20437287  0.78642745  0.43229118     0.06840
C622        C  0.24852000  0.80157891  0.44361892    -0.02310
Br623      Br  0.30059611  0.81084232  0.42310814    -0.02010
H624        H  0.28938221  0.82179000  0.47932689     0.10150
H625        H  0.13846822  0.78205262  0.43844058     0.08170
Br626      Br  0.13370895  0.81048404  0.99267570    -0.02440
C627        C  0.24662967  0.78530063  0.19435436    -0.09070
C628        C  0.20977511  0.78923135  0.18360972     0.07130
C629        C  0.19254204  0.81299897  0.19858302    -0.02840
C630        C  0.21060160  0.82990710  0.22391567    -0.07290
C631        C  0.24523262  0.82319171  0.23513194     0.06240
C632        C  0.26413220  0.80187067  0.21977634    -0.02310
Br633      Br  0.31015083  0.78982643  0.23409952    -0.02010
H634        H  0.26194741  0.76891428  0.18304967     0.10150
H635        H  0.19435523  0.84449093  0.23601103     0.08170
Br636      Br  0.14164465  0.81997136  0.18702426    -0.02440
Zn637      Zn  0.17859867  0.80793150  0.60266925     1.49720
Zn638      Zn  0.22630611  0.74414087  0.60738926     1.49360
Zn639      Zn  0.17403800  0.74508222  0.55940525     1.49110
Zn640      Zn  0.27119541  0.83421904  0.56909180     1.49480
O641        O  0.21464234  0.78465135  0.58547037    -1.84040
O642        O  0.17964903  0.79534190  0.64176053    -0.74670
O643        O  0.20480920  0.67941825  0.59088254    -0.74490
O644        O  0.10839689  0.72190816  0.56630592    -0.74010
O645        O  0.20829388  0.74801953  0.64484903    -0.74690
O646        O  0.11535883  0.78579455  0.58362828    -0.74280
O647        O  0.18123734  0.69191602  0.55256894    -0.74870
O648        O  0.26217093  0.83245833  0.52821684    -0.74260
O649        O  0.29431957  0.77381810  0.61152435    -0.75020
O650        O  0.18743103  0.77785809  0.52601929    -0.74410
O651        O  0.32844313  0.83136413  0.58215217    -0.74870
O652        O  0.28141273  0.89490633  0.58406505    -0.74780
O653        O  0.21490900  0.87747587  0.60343103    -0.74570
C654        C  0.19638300  0.77509354  0.65546799     0.77220
C655        C  0.19139753  0.66735486  0.56687770     0.77710
C656        C  0.09274689  0.74893955  0.56968444     0.76670
C657        C  0.22425484  0.80907892  0.51512829     0.77040
C658        C  0.33073415  0.80681018  0.60101408     0.78180
C659        C  0.25694455  0.90672417  0.59764490     0.77230
Zn660      Zn  0.17832422  0.74949352  0.80414168     1.49720
Zn661      Zn  0.22470397  0.74292283  0.85511729     1.49360
Zn662      Zn  0.27622255  0.83917398  0.82141736     1.49110
Zn663      Zn  0.17897927  0.80799970  0.85160088     1.49480
O664        O  0.21573961  0.78586486  0.83321187    -1.84040
O665        O  0.17382746  0.68849044  0.80043322    -0.74670
O666        O  0.29208953  0.76682732  0.85837792    -0.74490
O667        O  0.27604832  0.84399302  0.77993124    -0.74010
O668        O  0.19767060  0.67693098  0.83914841    -0.74690
O669        O  0.20654670  0.78192206  0.77203433    -0.74280
O670        O  0.33111676  0.83282446  0.83592400    -0.74870
O671        O  0.21310913  0.87765754  0.85340550    -0.74260
O672        O  0.20996094  0.74957861  0.89320880    -0.75020
O673        O  0.28380482  0.89809633  0.83912123    -0.74410
O674        O  0.17855531  0.79446525  0.89019980    -0.74870
O675        O  0.11363880  0.78345008  0.83614152    -0.74780
O676        O  0.11596580  0.74162901  0.80264071    -0.74570
C677        C  0.18211246  0.66326725  0.81563565     0.77220
C678        C  0.33038523  0.80190073  0.85132028     0.77710
C679        C  0.24338171  0.81711204  0.76400884     0.76670
C680        C  0.25596794  0.90785006  0.85093924     0.77040
C681        C  0.19581229  0.77481871  0.90382269     0.78180
C682        C  0.09509206  0.75774985  0.81580226     0.77230
Zn683      Zn  0.64767540  0.82485602  0.68320771     1.49720
Zn684      Zn  0.53840948  0.78837486  0.68959754     1.49360
Zn685      Zn  0.58874710  0.83236005  0.63950982     1.49110
Zn686      Zn  0.57184773  0.73246096  0.65240042     1.49480
O687        O  0.58661498  0.79269157  0.66667885    -1.84040
O688        O  0.63535582  0.82457077  0.72173681    -0.74670
O689        O  0.49655710  0.80986321  0.67260334    -0.74490
O690        O  0.63741400  0.89642922  0.64500245    -0.74010
O691        O  0.56445370  0.81380961  0.72552347    -0.74690
O692        O  0.68999206  0.89188854  0.66975114    -0.74280
O693        O  0.52922563  0.83040949  0.63313968    -0.74870
O694        O  0.56966386  0.73715309  0.61096517    -0.74260
O695        O  0.49596836  0.72203828  0.69752784    -0.75020
O696        O  0.60304219  0.81414764  0.60651958    -0.74410
O697        O  0.51057094  0.68018376  0.66939114    -0.74870
O698        O  0.62224849  0.71932299  0.66585153    -0.74780
O699        O  0.67801659  0.78604771  0.68258576    -0.74570
C700        C  0.60153153  0.81880891  0.73595059     0.77220
C701        C  0.49600502  0.82208842  0.64862194     0.77710
C702        C  0.67730226  0.91514265  0.65552879     0.76670
C703        C  0.58655842  0.77411311  0.59662787     0.77040
C704        C  0.48669521  0.68289710  0.68847046     0.78180
C705        C  0.66115973  0.74290030  0.67786715     0.77230
Zn706      Zn  0.57651920  0.83113901  0.92996666     1.49720
Zn707      Zn  0.57488612  0.73636411  0.94330583     1.49360
Zn708      Zn  0.52655453  0.73889141  0.89356673     1.49110
Zn709      Zn  0.63976913  0.79994010  0.89837370     1.49480
O710        O  0.57958831  0.77785092  0.91603904    -1.84040
O711        O  0.58189290  0.83169030  0.97136195    -0.74670
O712        O  0.51423000  0.67839515  0.94691595    -0.74490
O713        O  0.48905969  0.76916028  0.88925581    -0.74010
O714        O  0.58406659  0.76657009  0.97670109    -0.74690
O715        O  0.51712245  0.82928144  0.91697465    -0.74280
O716        O  0.48100431  0.67398861  0.90845084    -0.74870
O717        O  0.62508672  0.78688529  0.85968147    -0.74260
O718        O  0.62319977  0.72054318  0.94155977    -0.75020
O719        O  0.54830949  0.74011544  0.85670089    -0.74410
O720        O  0.67671751  0.77075252  0.91370272    -0.74870
O721        O  0.67885084  0.87042738  0.89668314    -0.74780
O722        O  0.62793389  0.88916639  0.91163280    -0.74570
C723        C  0.58520090  0.80208203  0.98606703     0.77220
C724        C  0.48005592  0.65702498  0.93132351     0.77710
C725        C  0.48799961  0.80339416  0.89928210     0.76670
C726        C  0.58786289  0.76581456  0.84605927     0.77040
C727        C  0.66253132  0.73758641  0.93056812     0.78180
C728        C  0.66529372  0.89960662  0.89918804     0.77230
Zn729      Zn  0.15971282  0.40769650  0.52280677     1.49720
Zn730      Zn  0.20855501  0.46175353  0.97490632     1.49360
Zn731      Zn  0.25383750  0.41760640  0.51172564     1.49110
Zn732      Zn  0.16034699  0.34952174  0.97871429     1.49480
O733        O  0.19798046  0.40923275  0.99553385    -1.84040
O734        O  0.17404648  0.47034131  0.53371966    -0.74670
O735        O  0.27596832  0.49985484  0.96780257    -0.74490
O736        O  0.24572688  0.41985034  0.55259970    -0.74010
O737        O  0.19264807  0.50549069  0.99459387    -0.74690
O738        O  0.16910985  0.37897325  0.55386724    -0.74280
O739        O  0.31074607  0.47660052  0.49626676    -0.74870
O740        O  0.19653773  0.31640173  0.97663252    -0.74260
O741        O  0.18254484  0.43986786  0.93858057    -0.75020
O742        O  0.26118495  0.36396683  0.49872797    -0.74410
O743        O  0.15766345  0.36376746  0.94055243    -0.74870
O744        O  0.09694925  0.31028743  0.99758454    -0.74780
O745        O  0.09404134  0.37026854  0.51379830    -0.74570
C746        C  0.18460138  0.50558438  0.51941543     0.77220
C747        C  0.31271772  0.50342569  0.97746678     0.77710
C748        C  0.20766675  0.40000483  0.56584271     0.76670
C749        C  0.23748613  0.32819766  0.98401321     0.77040
C750        C  0.17073471  0.40107302  0.92743561     0.78180
C751        C  0.07567860  0.32685659  0.51041490     0.77230
Zn752      Zn  0.25219364  0.47012325  0.77419278     1.49720
Zn753      Zn  0.16273030  0.42317979  0.73507713     1.49360
Zn754      Zn  0.25819487  0.42517801  0.72486746     1.49110
Zn755      Zn  0.19184514  0.35675868  0.76723076     1.49480
O756        O  0.21449883  0.41843709  0.75077326    -1.84040
O757        O  0.22034226  0.50540562  0.77998008    -0.74670
O758        O  0.16582834  0.42079849  0.69336124    -0.74490
O759        O  0.31855523  0.48334007  0.72348799    -0.74010
O760        O  0.16539192  0.48289906  0.74907370    -0.74690
O761        O  0.31715168  0.51847802  0.76018954    -0.74280
O762        O  0.23246693  0.42220677  0.69100821    -0.74870
O763        O  0.21486518  0.31620110  0.74817078    -0.74260
O764        O  0.10153989  0.37013404  0.75080236    -0.75020
O765        O  0.26830853  0.37391142  0.72403718    -0.74410
O766        O  0.12182209  0.32369872  0.77116459    -0.74870
O767        O  0.20976589  0.36777259  0.80583313    -0.74780
O768        O  0.25011694  0.44495219  0.81005388    -0.74570
C769        C  0.18829168  0.50884027  0.76872851     0.77220
C770        C  0.19815498  0.42069472  0.67971136     0.77710
C771        C  0.33712974  0.51823453  0.73864684     0.76670
C772        C  0.24870242  0.33213308  0.73171369     0.77040
C773        C  0.09158223  0.33474050  0.76531132     0.78180
C774        C  0.22902400  0.40436069  0.82013583     0.77230
Zn775      Zn  0.42478148  0.15340581  0.68307828     1.49720
Zn776      Zn  0.36041464  0.18172308  0.64799601     1.49360
Zn777      Zn  0.42348017  0.24484755  0.69430813     1.49110
Zn778      Zn  0.47241032  0.24421390  0.64532306     1.49480
O779        O  0.41961030  0.20441125  0.66730813    -1.84040
O780        O  0.37471323  0.09519415  0.66588832    -0.74670
O781        O  0.32193755  0.21080098  0.66235216    -0.74490
O782        O  0.41179539  0.21490232  0.72776918    -0.74010
O783        O  0.32363766  0.11145002  0.64803750    -0.74690
O784        O  0.41567073  0.15087409  0.72441518    -0.74280
O785        O  0.37430804  0.25789478  0.69162741    -0.74870
O786        O  0.51629854  0.30961880  0.65936340    -0.74260
O787        O  0.37627154  0.19259610  0.60862229    -0.75020
O788        O  0.48321198  0.30346338  0.69811754    -0.74410
O789        O  0.45264781  0.24123796  0.60829208    -0.74870
O790        O  0.51039907  0.21530658  0.64157130    -0.74780
O791        O  0.48452905  0.15599619  0.66993899    -0.74570
C792        C  0.33778660  0.08316580  0.65263842     0.77220
C793        C  0.33581728  0.24273064  0.67999843     0.77710
C794        C  0.40947418  0.17949944  0.73818941     0.76670
C795        C  0.51692438  0.32580333  0.68235044     0.77040
C796        C  0.41476925  0.21518358  0.59620355     0.78180
C797        C  0.51240672  0.18164038  0.65164086     0.77230
Zn798      Zn  0.43255753  0.15883747  0.92949139     1.49720
Zn799      Zn  0.36160840  0.18669741  0.90162434     1.49360
Zn800      Zn  0.42803649  0.24810164  0.94617651     1.49110
Zn801      Zn  0.47427370  0.25207271  0.89406860     1.49480
O802        O  0.42382012  0.21015031  0.91738461    -1.84040
O803        O  0.38057573  0.10018025  0.91309105    -0.74670
O804        O  0.32496150  0.21691824  0.91803203    -0.74490
O805        O  0.42328704  0.21634666  0.97831049    -0.74010
O806        O  0.32532225  0.11541955  0.90119947    -0.74690
O807        O  0.43209417  0.15567084  0.97101181    -0.74280
O808        O  0.37813123  0.26091694  0.94746383    -0.74870
O809        O  0.51914499  0.31682826  0.90993261    -0.74260
O810        O  0.37261674  0.19797760  0.86233719    -0.75020
O811        O  0.48732798  0.30743862  0.94970377    -0.74410
O812        O  0.44893514  0.24702706  0.85736710    -0.74870
O813        O  0.51450299  0.22598716  0.88716423    -0.74780
O814        O  0.49122397  0.16385547  0.91249737    -0.74570
C815        C  0.34121815  0.08785820  0.90267068     0.77220
C816        C  0.33949074  0.24759213  0.93650651     0.77710
C817        C  0.42720769  0.18296810  0.98675102     0.76670
C818        C  0.52040976  0.33073818  0.93374495     0.77040
C819        C  0.40871731  0.21946102  0.84783536     0.78180
C820        C  0.51807662  0.19172444  0.89452963     0.77230
Zn821      Zn  0.75151221  0.18348850  0.61504694     1.49720
Zn822      Zn  0.80177769  0.16723672  0.56742253     1.49360
Zn823      Zn  0.74561538  0.22111235  0.56168006     1.49110
Zn824      Zn  0.84217697  0.26729712  0.59559164     1.49480
O825        O  0.78604082  0.21040831  0.58398178    -1.84040
O826        O  0.74974619  0.12596930  0.62358127    -0.74670
O827        O  0.78745390  0.16401628  0.52809311    -0.74490
O828        O  0.67953737  0.19849023  0.57676950    -0.74010
O829        O  0.77388985  0.10494791  0.58811837    -0.74690
O830        O  0.68837641  0.17132313  0.61511969    -0.74280
O831        O  0.75307507  0.20608749  0.52411354    -0.74870
O832        O  0.83885325  0.32523602  0.58357816    -0.74260
O833        O  0.87108088  0.19642271  0.56461142    -0.75020
O834        O  0.77460598  0.28849885  0.55939373    -0.74410
O835        O  0.89589632  0.26967057  0.57630255    -0.74870
O836        O  0.85179702  0.26094872  0.63596643    -0.74780
O837        O  0.77704447  0.22407318  0.64537817    -0.74570
C838        C  0.75595888  0.09651875  0.61141962     0.77220
C839        C  0.77384355  0.18666589  0.51399502     0.77710
C840        C  0.66502177  0.18183972  0.60000067     0.76670
C841        C  0.80904573  0.32586353  0.56779004     0.77040
C842        C  0.90298098  0.23894919  0.56605880     0.78180
C843        C  0.81856814  0.24146166  0.65267088     0.77230
Zn844      Zn  0.83936586  0.25804490  0.84669929     1.49720
Zn845      Zn  0.74652225  0.16045957  0.85771868     1.49360
Zn846      Zn  0.74734505  0.21179488  0.80905393     1.49110
Zn847      Zn  0.81040236  0.16371375  0.81244349     1.49480
O848        O  0.78780635  0.20001843  0.83111664    -1.84040
O849        O  0.83803730  0.25011955  0.88848670    -0.74670
O850        O  0.69035568  0.16422026  0.86263442    -0.74490
O851        O  0.77487915  0.27924309  0.80657318    -0.74010
O852        O  0.77673790  0.17880957  0.89136119    -0.74690
O853        O  0.83616659  0.31572005  0.83281987    -0.74280
O854        O  0.68125054  0.18821039  0.82355926    -0.74870
O855        O  0.79829023  0.16589610  0.77319181    -0.74260
O856        O  0.72872952  0.09522892  0.85420387    -0.75020
O857        O  0.75458213  0.19881242  0.77121477    -0.74410
O858        O  0.78265085  0.09626530  0.82803490    -0.74870
O859        O  0.88091783  0.20013082  0.81127153    -0.74780
O860        O  0.90023024  0.26746481  0.83076867    -0.74570
C861        C  0.81047492  0.21372546  0.90210275     0.77220
C862        C  0.66686654  0.17410273  0.84719283     0.77710
C863        C  0.80869736  0.31674884  0.81538871     0.76670
C864        C  0.77966030  0.18498794  0.76017091     0.77040
C865        C  0.74804651  0.07483430  0.84388321     0.78180
C866        C  0.91103314  0.24212579  0.81705880     0.77230
Zn867      Zn  0.78801985  0.52925968  0.97837593     1.49720
Zn868      Zn  0.83876332  0.58144324  0.52856144     1.49360
Zn869      Zn  0.83422072  0.64012158  0.98192761     1.49110
Zn870      Zn  0.74054402  0.57188976  0.51531703     1.49480
O871        O  0.79947615  0.58075221  0.00101311    -1.84040
O872        O  0.81119687  0.48799319  0.99368587    -0.74670
O873        O  0.90138599  0.63513376  0.52747187    -0.74490
O874        O  0.82580323  0.62499082  0.94274387    -0.74010
O875        O  0.84098484  0.52367325  0.53200834    -0.74690
O876        O  0.80144998  0.54948206  0.94021799    -0.74280
O877        O  0.90180129  0.68152616  0.99559077    -0.74870
O878        O  0.73156061  0.62088200  0.49716921    -0.74260
O879        O  0.81550165  0.58887088  0.56183903    -0.75020
O880        O  0.80123733  0.67611861  0.98330044    -0.74410
O881        O  0.74554139  0.58024779  0.55661727    -0.74870
O882        O  0.68363659  0.50964705  0.50241463    -0.74780
O883        O  0.72058930  0.48680868  0.97576374    -0.74570
C884        C  0.82829185  0.48934979  0.51660958     0.77220
C885        C  0.92164573  0.67304932  0.51473485     0.77710
C886        C  0.80909545  0.58733614  0.92948670     0.76670
C887        C  0.75773836  0.65958182  0.98544967     0.77040
C888        C  0.78009182  0.58788359  0.57129297     0.78180
C889        C  0.68296592  0.48150655  0.98496833     0.77230
Zn890      Zn  0.83067194  0.63775997  0.73517159     1.49720
Zn891      Zn  0.82630719  0.57196321  0.78092500     1.49360
Zn892      Zn  0.73288912  0.56828040  0.76343814     1.49110
Zn893      Zn  0.78420997  0.52591517  0.72906417     1.49480
O894        O  0.79265558  0.57625735  0.75175624    -1.84040
O895        O  0.89418970  0.67698218  0.75482549    -0.74670
O896        O  0.80094050  0.58096303  0.81307316    -0.74490
O897        O  0.72438826  0.61723629  0.74479766    -0.74010
O898        O  0.89060367  0.62257996  0.78181032    -0.74690
O899        O  0.79478816  0.67205370  0.73192952    -0.74280
O900        O  0.73300529  0.57541024  0.80451651    -0.74870
O901        O  0.71712760  0.48400737  0.72374160    -0.74260
O902        O  0.82458196  0.51197010  0.78506836    -0.75020
O903        O  0.67855872  0.50732034  0.74886413    -0.74410
O904        O  0.80758330  0.48406600  0.74423818    -0.74870
O905        O  0.80235518  0.54996381  0.69210086    -0.74780
O906        O  0.83450631  0.62687693  0.69597042    -0.74570
C907        C  0.91185884  0.66385777  0.77308641     0.77220
C908        C  0.76533596  0.58163997  0.82063366     0.77710
C909        C  0.75112661  0.65596704  0.73332947     0.76670
C910        C  0.67909162  0.47964478  0.73157568     0.77040
C911        C  0.81795623  0.48091182  0.76831416     0.78180
C912        C  0.81744512  0.59007301  0.68188380     0.77230
C913        C  0.81463732  0.62818111  0.88678013    -0.09070
C914        C  0.79360794  0.58681687  0.90170463     0.07130
C915        C  0.75402993  0.54723343  0.89085258    -0.02840
C916        C  0.73984271  0.54833197  0.86482735    -0.07290
C917        C  0.76371849  0.58832542  0.84925413     0.06240
C918        C  0.79989073  0.62911322  0.86084341    -0.02310
Br919      Br  0.83240378  0.68590245  0.84086519    -0.02010
H920        H  0.84343353  0.65961085  0.89499650     0.10150
H921        H  0.71232189  0.51662509  0.85601714     0.08170
Br922      Br  0.71653701  0.49039894  0.91005312    -0.02440
C923        C  0.76390502  0.55826663  0.64354721    -0.09070
C924        C  0.80753018  0.59255659  0.65348058     0.07130
C925        C  0.83711731  0.63010435  0.63697563    -0.02840
C926        C  0.82412737  0.63104772  0.61064844    -0.07290
C927        C  0.78190651  0.59506477  0.60021407     0.06240
C928        C  0.75090462  0.55937779  0.61721877    -0.02310
Br929      Br  0.69256230  0.50923140  0.60481848    -0.02010
H930        H  0.73974746  0.53013179  0.65631744     0.10150
H931        H  0.84883442  0.65825415  0.59758124     0.08170
Br932      Br  0.89748925  0.67821235  0.64830991    -0.02440
C933        C  0.78813937  0.35645263  0.78058932    -0.09070
C934        C  0.81519639  0.36080113  0.80323988     0.07130
C935        C  0.84660716  0.40610566  0.81252475    -0.02840
C936        C  0.84852714  0.44482966  0.80003393    -0.07290
C937        C  0.82016291  0.43988080  0.77799677     0.06240
C938        C  0.79015240  0.39485375  0.76814242    -0.02310
Br939      Br  0.74740939  0.38216886  0.73936681    -0.02010
H940        H  0.76414671  0.32251963  0.77245091     0.10150
H941        H  0.87179120  0.47913649  0.80799907     0.08170
Br942      Br  0.88668716  0.41794223  0.84246059    -0.02440
C943        C  0.85876319  0.40950222  0.55408541    -0.09070
C944        C  0.81439994  0.36972843  0.55688672     0.07130
C945        C  0.77580064  0.37033568  0.54557848    -0.02840
C946        C  0.78247723  0.40836935  0.53061200    -0.07290
C947        C  0.82653031  0.44766389  0.52763319     0.06240
C948        C  0.86484109  0.44867424  0.54003306    -0.02310
Br949      Br  0.92595691  0.50227412  0.53759782    -0.02010
H950        H  0.88884191  0.40986953  0.56236737     0.10150
H951        H  0.75242149  0.40832766  0.52247912     0.08170
Br952      Br  0.71211739  0.32219266  0.55104621    -0.02440
C953        C  0.78431392  0.15892371  0.97014038    -0.09070
C954        C  0.78708208  0.19495193  0.98558799     0.07130
C955        C  0.80739638  0.24012513  0.97434627    -0.02840
C956        C  0.81971495  0.24726634  0.94737055    -0.07290
C957        C  0.81301403  0.21020070  0.93132665     0.06240
C958        C  0.79713813  0.16609352  0.94334386    -0.02310
Br959      Br  0.79076305  0.11347143  0.92400757    -0.02010
H960        H  0.77122359  0.12475496  0.97880172     0.10150
H961        H  0.83221661  0.28129684  0.93865943     0.08170
Br962      Br  0.82138284  0.29400275  0.49503185    -0.02440
C963        C  0.81494386  0.24689055  0.72632162    -0.09070
C964        C  0.79412359  0.19922461  0.73246333     0.07130
C965        C  0.79118984  0.16823454  0.71274083    -0.02840
C966        C  0.80640575  0.18478284  0.68695691    -0.07290
C967        C  0.82446788  0.23197266  0.68039856     0.06240
C968        C  0.83001796  0.26333061  0.70051166    -0.02310
Br969      Br  0.85453354  0.32795714  0.69300276    -0.02010
H970        H  0.81879547  0.27140484  0.74162917     0.10150
H971        H  0.80029852  0.15992203  0.67138267     0.08170
Br972      Br  0.76147625  0.10262659  0.71921707    -0.02440
C973        C  0.60750419  0.19776918  0.84476612    -0.09070
C974        C  0.62446524  0.17243303  0.85788655     0.07130
C975        C  0.60376643  0.15083716  0.88251050    -0.02840
C976        C  0.56881225  0.15683290  0.89372317    -0.07290
C977        C  0.55368849  0.18434588  0.88125384     0.06240
C978        C  0.57295606  0.20412651  0.85604485    -0.02310
Br979      Br  0.55482303  0.24053917  0.83514471    -0.02010
H980        H  0.62248196  0.21446487  0.82593217     0.10150
H981        H  0.55413310  0.14064792  0.91270500     0.08170
Br982      Br  0.62083955  0.11256776  0.90242464    -0.02440
C983        C  0.55797319  0.40523199  0.95937535    -0.09070
C984        C  0.56226822  0.37190888  0.94456710     0.07130
C985        C  0.60502476  0.37349198  0.94471401    -0.02840
C986        C  0.64238485  0.40793329  0.95913398    -0.07290
C987        C  0.63909968  0.44247029  0.97343786     0.06240
C988        C  0.59594981  0.44075830  0.97336757    -0.02310
Br989      Br  0.58655734  0.48618810  0.99099549    -0.02010
H990        H  0.52478421  0.40354177  0.96008170     0.10150
H991        H  0.67463289  0.40769252  0.95889979     0.08170
Br992      Br  0.61347486  0.32718896  0.92728450    -0.02440
C993        C  0.57916298  0.15161155  0.60311058    -0.09070
C994        C  0.62450855  0.18062090  0.61241960     0.07130
C995        C  0.63147067  0.20612304  0.63612087    -0.02840
C996        C  0.59376539  0.20234749  0.65008531    -0.07290
C997        C  0.54855686  0.17373560  0.64088083     0.06240
C998        C  0.54123226  0.14843179  0.61708926    -0.02310
Br999      Br  0.48014568  0.11108169  0.60245289    -0.02010
H1000       H  0.57326762  0.13156095  0.58513593     0.10150
H1001       H  0.59995608  0.22381408  0.66749468     0.08170
Br1002     Br  0.69231847  0.24959455  0.64949686    -0.02440
C1003       C  0.64066691  0.42407584  0.69444191    -0.09070
C1004       C  0.63593137  0.44278505  0.71856685     0.07130
C1005       C  0.59085635  0.42609667  0.72866576    -0.02840
C1006       C  0.55256508  0.38999115  0.71549723    -0.07290
C1007       C  0.55770671  0.36952574  0.69220799     0.06240
C1008       C  0.60255230  0.38806177  0.68130717    -0.02310
Br1009     Br  0.61573269  0.36470646  0.64962385    -0.02010
H1010       H  0.67464899  0.43707573  0.68568132     0.10150
H1011       H  0.51847498  0.37680154  0.72415048     0.08170
Br1012     Br  0.57869123  0.44863744  0.76093285    -0.02440
C1013       C  0.37002509  0.19006223  0.77629785    -0.09070
C1014       C  0.40042911  0.17546939  0.76701131     0.07130
C1015       C  0.43057807  0.17225670  0.78512769    -0.02840
C1016       C  0.43280701  0.18748940  0.81126793    -0.07290
C1017       C  0.40527824  0.20576084  0.81980831     0.06240
C1018       C  0.37240442  0.20535690  0.80239095    -0.02310
Br1019     Br  0.33375119  0.22984714  0.81246079    -0.02010
H1020       H  0.34676858  0.19312649  0.76252008     0.10150
H1021       H  0.45621812  0.18500403  0.82511234     0.08170
Br1022     Br  0.47185023  0.15112691  0.77475404    -0.02440
C1023       C  0.38559913  0.16238270  0.55687780    -0.09070
C1024       C  0.41755411  0.20628093  0.56765050     0.07130
C1025       C  0.45647701  0.23727862  0.55228658    -0.02840
C1026       C  0.46296435  0.22401349  0.52722625    -0.07290
C1027       C  0.42968875  0.18167879  0.51577944     0.06240
C1028       C  0.39108716  0.15030685  0.53096610    -0.02310
Br1029     Br  0.34397542  0.09227845  0.51641351    -0.02010
H1030       H  0.35625957  0.13736001  0.56858349     0.10150
H1031       H  0.49176306  0.24939084  0.51526207     0.08170
Br1032     Br  0.49967021  0.30031749  0.56274765    -0.02440
C1033       C  0.96216656  0.25360737  0.77814133    -0.09070
C1034       C  0.95831537  0.26312625  0.80504922     0.07130
C1035       C  0.99900940  0.29537778  0.81865443    -0.02840
C1036       C  0.04197244  0.31729788  0.80539042    -0.07290
C1037       C  0.04538376  0.30879474  0.77833461     0.06240
C1038       C  0.00501248  0.27649853  0.76474118    -0.02310
Br1039     Br  0.00694094  0.26291279  0.72792428    -0.02010
H1040       H  0.93135551  0.22945750  0.76714592     0.10150
H1041       H  0.07289664  0.34185735  0.81617358     0.08170
Br1042     Br  0.99813576  0.30998760  0.85544286    -0.02440
C1043       C  0.26257052  0.23705745  0.69756103    -0.09070
C1044       C  0.30892451  0.26414796  0.68887873     0.07130
C1045       C  0.33387181  0.31185153  0.69516493    -0.02840
C1046       C  0.31410262  0.33079929  0.71108593    -0.07290
C1047       C  0.26784056  0.30466003  0.71980839     0.06240
C1048       C  0.24158319  0.25720921  0.71258340    -0.02310
Br1049     Br  0.17737192  0.21912562  0.72186342    -0.02010
H1050       H  0.24322104  0.20014014  0.69338722     0.10150
H1051       H  0.33524720  0.36736931  0.71597985     0.08170
Br1052     Br  0.39608873  0.35386321  0.68275073    -0.02440
C1053       C  0.22529282  0.43888274  0.89073926    -0.09070
C1054       C  0.18241446  0.40152364  0.89923142     0.07130
C1055       C  0.15859976  0.36231217  0.88272698    -0.02840
C1056       C  0.17678657  0.36208017  0.85775720    -0.07290
C1057       C  0.21905852  0.40020580  0.84890700     0.06240
C1058       C  0.24407338  0.43821109  0.86617023    -0.02310
Br1059     Br  0.30477868  0.48963086  0.85795842    -0.02010
H1060       H  0.24560107  0.46808516  0.90383812     0.10150
H1061       H  0.15642452  0.33282600  0.84472087     0.08170
Br1062     Br  0.10026343  0.30915735  0.89268462    -0.02440
C1063       C  0.16294849  0.39249521  0.60703129    -0.09070
C1064       C  0.20605442  0.40450388  0.59514871     0.07130
C1065       C  0.24589250  0.42398634  0.61125435    -0.02840
C1066       C  0.24207813  0.43132959  0.63815553    -0.07290
C1067       C  0.19892593  0.41837794  0.65022534     0.06240
C1068       C  0.15907275  0.39905469  0.63418926    -0.02310
Br1069     Br  0.09841127  0.37925093  0.64806315    -0.02010
H1070       H  0.13164522  0.37799828  0.59514937     0.10150
H1071       H  0.27358424  0.44642658  0.64990536     0.08170
Br1072     Br  0.30634701  0.43955516  0.59862967    -0.02440
C1073       C  0.03087015  0.30920145  0.55160556    -0.09070
C1074       C  0.03225861  0.29707105  0.52501652     0.07130
C1075       C  0.99202648  0.26045882  0.51340718    -0.02840
C1076       C  0.95034917  0.23907388  0.52791575    -0.07290
C1077       C  0.94847370  0.25400519  0.55384214     0.06240
C1078       C  0.98962370  0.28811151  0.56599960    -0.02310
Br1079     Br  0.99141482  0.30763567  0.60209212    -0.02010
H1080       H  0.06199057  0.33648112  0.56104054     0.10150
H1081       H  0.91879726  0.21292216  0.51829874     0.08170
Br1082     Br  0.99124022  0.24211625  0.97724188    -0.02440
C1083       C  0.30930798  0.32708982  0.97435946    -0.09070
C1084       C  0.26073776  0.30368949  0.97286496     0.07130
C1085       C  0.23785028  0.26198947  0.95773789    -0.02840
C1086       C  0.26373520  0.24469988  0.94523133    -0.07290
C1087       C  0.31241639  0.26848778  0.94694946     0.06240
C1088       C  0.33503563  0.31091972  0.96137181    -0.02310
Br1089     Br  0.40148910  0.35152833  0.96342350    -0.02010
H1090       H  0.32817612  0.35981730  0.98487689     0.10150
H1091       H  0.24562847  0.21214589  0.93449315     0.08170
Br1092     Br  0.17165019  0.22623961  0.95340253    -0.02440
C1093       C  0.66156175  0.95526552  0.86843400    -0.09070
C1094       C  0.68932124  0.94404789  0.88403985     0.07130
C1095       C  0.73806457  0.97316054  0.88266022    -0.02840
C1096       C  0.75776536  0.01407264  0.86714579    -0.07290
C1097       C  0.72951667  0.02607250  0.85248765     0.06240
C1098       C  0.68108190  0.99533336  0.85270685    -0.02310
Br1099     Br  0.63973442  0.00729065  0.83223360    -0.02010
H1100       H  0.62418615  0.93247465  0.86833808     0.10150
H1101       H  0.79490368  0.03794444  0.86790456     0.08170
Br1102     Br  0.77872742  0.96091347  0.90343526    -0.02440
C1103       C  0.73583057  0.74813089  0.94996887    -0.09070
C1104       C  0.69139604  0.71844149  0.93948429     0.07130
C1105       C  0.67041636  0.67015442  0.94361100    -0.02840
C1106       C  0.69231267  0.65260877  0.95928616    -0.07290
C1107       C  0.73583080  0.68208188  0.97087019     0.06240
C1108       C  0.75835492  0.73033222  0.96542241    -0.02310
Br1109     Br  0.81796697  0.77389132  0.98002391    -0.02010
H1110       H  0.75188199  0.78539952  0.94745611     0.10150
H1111       H  0.67525552  0.61529772  0.96207448     0.08170
Br1112     Br  0.61123836  0.62628062  0.92843143    -0.02440
C1113       C  0.43956039  0.59810845  0.96729805    -0.09070
C1114       C  0.43843514  0.61351198  0.94123631     0.07130
C1115       C  0.39644297  0.58932839  0.92683046    -0.02840
C1116       C  0.35701657  0.55280195  0.93892598    -0.07290
C1117       C  0.35758231  0.53918936  0.96541767     0.06240
C1118       C  0.39992159  0.56169541  0.97941991    -0.02310
Br1119     Br  0.40546891  0.54746342  0.51576198    -0.02010
H1120       H  0.47115445  0.61562691  0.97892701     0.10150
H1121       H  0.32514301  0.53539940  0.92751089     0.08170
Br1122     Br  0.38893495  0.60463927  0.89102341    -0.02440
C1123       C  0.76192323  0.02582572  0.62071674    -0.09070
C1124       C  0.74004559  0.05168688  0.62517507     0.07130
C1125       C  0.70262981  0.03441676  0.64348774    -0.02840
C1126       C  0.68760473  0.99223285  0.65623685    -0.07290
C1127       C  0.70724027  0.96505504  0.65051495     0.06240
C1128       C  0.74553075  0.98249908  0.63316445    -0.02310
Br1129     Br  0.77333038  0.94643718  0.62407382    -0.02010
H1130       H  0.79086181  0.03865115  0.60703250     0.10150
H1131       H  0.65716061  0.97831932  0.66888218     0.08170
Br1132     Br  0.66513733  0.06220266  0.64964186    -0.02440
C1133       C  0.73096133  0.74738238  0.69959194    -0.09070
C1134       C  0.68578126  0.71959686  0.68911050     0.07130
C1135       C  0.66323679  0.67091268  0.69335386    -0.02840
C1136       C  0.68511869  0.65192171  0.70818609    -0.07290
C1137       C  0.72970677  0.67976012  0.71908640     0.06240
C1138       C  0.75292995  0.72810373  0.71426705    -0.02310
Br1139     Br  0.81329457  0.77016254  0.72858285    -0.02010
H1140       H  0.74910321  0.78476166  0.69700873     0.10150
H1141       H  0.66695256  0.61457683  0.71102312     0.08170
Br1142     Br  0.60175130  0.62740191  0.68082494    -0.02440
C1143       C  0.44763207  0.59809632  0.70011255    -0.09070
C1144       C  0.44837601  0.64049489  0.70151642     0.07130
C1145       C  0.41401366  0.64232226  0.71720098    -0.02840
C1146       C  0.38086315  0.60294118  0.73097609    -0.07290
C1147       C  0.37945492  0.56050824  0.72902196     0.06240
C1148       C  0.41350597  0.55832819  0.71347984    -0.02310
Br1149     Br  0.41567777  0.50219535  0.71025859    -0.02010
H1150       H  0.47386737  0.59584175  0.68871980     0.10150
H1151       H  0.35403886  0.60482080  0.74198744     0.08170
Br1152     Br  0.40673545  0.69576343  0.71933136    -0.02440
C1153       C  0.56272979  0.80120817  0.77966517    -0.09070
C1154       C  0.60237228  0.81126140  0.76494303     0.07130
C1155       C  0.63725528  0.80542568  0.77736253    -0.02840
C1156       C  0.63084602  0.78858652  0.80340650    -0.07290
C1157       C  0.59030077  0.77687511  0.81755599     0.06240
C1158       C  0.55628429  0.78411163  0.80550448    -0.02310
Br1159     Br  0.50116455  0.77451739  0.82322030    -0.02010
H1160       H  0.53561673  0.80556196  0.77084925     0.10150
H1161       H  0.65791911  0.78474435  0.81274442     0.08170
Br1162     Br  0.69434001  0.81842642  0.76060134    -0.02440
C1163       C  0.62609324  0.79425775  0.55353351    -0.09070
C1164       C  0.58414639  0.77347433  0.56764282     0.07130
C1165       C  0.54431554  0.76935491  0.55539759    -0.02840
C1166       C  0.54660490  0.78482112  0.52926786    -0.07290
C1167       C  0.58837022  0.80484204  0.51501265     0.06240
C1168       C  0.62827715  0.80931235  0.52735081    -0.02310
Br1169     Br  0.68612787  0.83430649  0.50864052    -0.02010
H1170       H  0.65756745  0.80009914  0.56322036     0.10150
H1171       H  0.51514331  0.77908360  0.51961031     0.08170
Br1172     Br  0.48659325  0.74494700  0.57417438    -0.02440
C1173       C  0.01061652  0.71515848  0.82310903    -0.09070
C1174       C  0.04804295  0.74449939  0.80692898     0.07130
C1175       C  0.03968535  0.75256548  0.78048522    -0.02840
C1176       C  0.99450904  0.72877949  0.77005720    -0.07290
C1177       C  0.95742144  0.69590808  0.78554329     0.06240
C1178       C  0.96569821  0.69060471  0.81273082    -0.02310
Br1179     Br  0.91812095  0.64878019  0.83693298    -0.02010
H1180       H  0.01676005  0.70860014  0.84339009     0.10150
H1181       H  0.98895254  0.73376554  0.74938513     0.08170
Br1182     Br  0.08948911  0.79425112  0.75762188    -0.02440
C1183       C  0.27599009  0.00511411  0.89922072    -0.09070
C1184       C  0.31675728  0.04250574  0.88887695     0.07130
C1185       C  0.33584067  0.03597828  0.86544558    -0.02840
C1186       C  0.31466587  0.99258978  0.85292084    -0.07290
C1187       C  0.27434220  0.95450712  0.86338842     0.06240
C1188       C  0.25501980  0.96119529  0.88699094    -0.02310
Br1189     Br  0.20317380  0.91133203  0.90540228    -0.02010
H1190       H  0.26147228  0.00958436  0.91744101     0.10150
H1191       H  0.33034184  0.98848222  0.83508402     0.08170
Br1192     Br  0.39134736  0.08553962  0.84977444    -0.02440
C1193       C  0.36819757  0.78137449  0.88711157    -0.09070
C1194       C  0.37344860  0.80665520  0.86353189     0.07130
C1195       C  0.41880663  0.83497962  0.85330613    -0.02840
C1196       C  0.45687835  0.83660533  0.86640924    -0.07290
C1197       C  0.45077960  0.81116964  0.88991194     0.06240
C1198       C  0.40608454  0.78409957  0.90039996    -0.02310
Br1199     Br  0.39493250  0.74820515  0.93229159    -0.02010
H1200       H  0.33411385  0.75859645  0.89538988     0.10150
H1201       H  0.49109101  0.85611670  0.85756580     0.08170
Br1202     Br  0.43069420  0.86828788  0.82039925    -0.02440
C1203       C  0.17923703  0.61669101  0.77625016    -0.09070
C1204       C  0.17673546  0.61957049  0.80419582     0.07130
C1205       C  0.17258783  0.58246046  0.81977643    -0.02840
C1206       C  0.17372767  0.54538880  0.80750027    -0.07290
C1207       C  0.17841299  0.54390715  0.77975727     0.06240
C1208       C  0.18031305  0.57959899  0.76406656    -0.02310
Br1209     Br  0.18992237  0.58216777  0.72634302    -0.02010
H1210       H  0.18279417  0.64470382  0.76368708     0.10150
H1211       H  0.17211757  0.51794075  0.81981902     0.08170
Br1212     Br  0.16483426  0.57975556  0.85766673    -0.02440
C1213       C  0.04627374  0.71895384  0.52869390    -0.09070
C1214       C  0.05073729  0.73838475  0.55416554     0.07130
C1215       C  0.01487123  0.74490005  0.56359226    -0.02840
C1216       C  0.97410932  0.72850022  0.54845567    -0.07290
C1217       C  0.96889578  0.70648192  0.52375244     0.06240
C1218       C  0.00611777  0.70337497  0.51354051    -0.02310
Br1219     Br  0.00132565  0.67291292  0.98039144    -0.02010
H1220       H  0.07374360  0.71428745  0.52078040     0.10150
H1221       H  0.94491532  0.72952680  0.55697915     0.08170
Br1222     Br  0.01716038  0.77011313  0.59813834    -0.02440
C1223       C  0.24946162  0.97046767  0.61842620    -0.09070
C1224       C  0.27840165  0.95410067  0.60928416     0.07130
C1225       C  0.32640733  0.98048351  0.61514047    -0.02840
C1226       C  0.34384966  0.02118015  0.63000891    -0.07290
C1227       C  0.31500088  0.03728578  0.63931351     0.06240
C1228       C  0.26730206  0.01170961  0.63313981    -0.02310
Br1229     Br  0.22446508  0.02963442  0.64556278    -0.02010
H1230       H  0.21247907  0.95058445  0.61458995     0.10150
H1231       H  0.38079807  0.04085425  0.63402166     0.08170
Br1232     Br  0.37072694  0.96268436  0.60521394    -0.02440
C1233       C  0.37760616  0.81211925  0.64043540    -0.09070
C1234       C  0.37568401  0.81690986  0.61271923     0.07130
C1235       C  0.41519580  0.82806601  0.59748077    -0.02840
C1236       C  0.45449581  0.83165206  0.60985675    -0.07290
C1237       C  0.45569434  0.82439291  0.63751329     0.06240
C1238       C  0.41684813  0.81601490  0.65291104    -0.02310
Br1239     Br  0.41392090  0.80912010  0.69091030    -0.02010
H1240       H  0.34783431  0.80459790  0.65258891     0.10150
H1241       H  0.48369365  0.83848447  0.59740791     0.08170
Br1242     Br  0.41608370  0.83459359  0.55955188    -0.02440
C1243       C  0.17428135  0.57376169  0.51685967    -0.09070
C1244       C  0.18687206  0.54676079  0.53194075     0.07130
C1245       C  0.20067911  0.55935138  0.55870974    -0.02840
C1246       C  0.20119207  0.59807794  0.56974877    -0.07290
C1247       C  0.18828001  0.62516880  0.55471418     0.06240
C1248       C  0.17451348  0.61226781  0.52775872    -0.02310
Br1249     Br  0.15523372  0.64424029  0.50367909    -0.02010
H1250       H  0.16343356  0.56439519  0.99639954     0.10150
H1251       H  0.21245158  0.60735964  0.59015574     0.08170
Br1252     Br  0.22221182  0.52727624  0.58095111    -0.02440
C1253       C  0.25663754  0.81373045  0.97045472    -0.09070
C1254       C  0.22186339  0.81297299  0.98612590     0.07130
C1255       C  0.17991710  0.80381481  0.97394939    -0.02840
C1256       C  0.17124506  0.79002516  0.94736123    -0.07290
C1257       C  0.20442324  0.78646310  0.93228809     0.06840
C1258       C  0.24857361  0.80161015  0.94361051    -0.02310
Br1259     Br  0.30063857  0.81086024  0.92309359    -0.02010
H1260       H  0.28944680  0.82181774  0.97931497     0.10150
H1261       H  0.13852846  0.78210691  0.93844484     0.08170
Br1262     Br  0.13361953  0.81041488  0.49266920    -0.02440
C1263       C  0.24661712  0.78528949  0.69435556    -0.09070
C1264       C  0.20976244  0.78922222  0.68361318     0.07130
C1265       C  0.19253626  0.81299588  0.69858667    -0.02840
C1266       C  0.21060303  0.82990862  0.72391739    -0.07290
C1267       C  0.24523372  0.82319090  0.73513175     0.06240
C1268       C  0.26412648  0.80186373  0.71977581    -0.02310
Br1269     Br  0.31014430  0.78981641  0.73409691    -0.02010
H1270       H  0.26192984  0.76889871  0.68305039     0.10150
H1271       H  0.19436161  0.84449691  0.73601334     0.08170
Br1272     Br  0.14163879  0.81997075  0.68703109    -0.02440
loop_ 
_geom_bond_atom_site_label_1 
_geom_bond_atom_site_label_2 
_geom_bond_distance 
_geom_bond_site_symmetry_2 
_ccdc_geom_bond_type 
Zn1           O5   1.942       .  S
Zn1           O6   2.014       .  S
Zn1          O10   2.085       .  S
Zn1          O17   2.001       .  S
Zn2           O5   1.931       .  S
Zn2           O7   2.075       .  S
Zn2           O9   2.003       .  S
Zn2          O13   1.977       .  S
Zn3           O5   1.867       .  S
Zn3           O8   1.953       .  S
Zn3          O11   1.942       .  S
Zn3          O14   1.927       .  S
Zn4           O5   1.952       .  S
Zn4          O12   2.074       .  S
Zn4          O15   2.072       .  S
Zn4          O16   2.024       .  S
O6           C18   1.276       .  A
O7           C19   1.280       .  A
O8           C20   1.266       .  A
O9           C18   1.278       .  A
O10          C20   1.279       .  A
O11          C19   1.260       .  A
O12          C21   1.282       .  A
O13          C22   1.269       .  A
O14          C21   1.264       .  A
O15          C22   1.280       .  A
O16          C23   1.275       .  A
O17          C23   1.272       .  A
C18         C628   1.488       .  S
C19         C611   1.492       .  S
C20         C578   1.484       .  S
C21        C1254   1.470   1_554  S
C22         C598   1.485       .  S
C23         C588   1.487       .  S
Zn24         O28   1.907       .  S
Zn24         O29   1.975       .  S
Zn24         O33   1.905       .  S
Zn24         O40   1.967       .  S
Zn25         O28   1.948       .  S
Zn25         O30   1.979       .  S
Zn25         O32   2.074       .  S
Zn25         O36   2.020       .  S
Zn26         O28   1.987       .  S
Zn26         O31   2.093       .  S
Zn26         O34   2.084       .  S
Zn26         O37   2.057       .  S
Zn27         O28   1.962       .  S
Zn27         O35   2.006       .  S
Zn27         O38   1.991       .  S
Zn27         O39   2.057       .  S
O29          C41   1.267       .  A
O30          C42   1.270       .  A
O31          C43   1.282       .  A
O32          C41   1.279       .  A
O33          C43   1.260       .  A
O34          C42   1.280       .  A
O35          C44   1.272       .  A
O36          C45   1.277       .  A
O37          C44   1.280       .  A
O38          C45   1.272       .  A
O39          C46   1.276       .  A
O40          C46   1.266       .  A
C41         C568   1.494       .  S
C42         C558   1.498       .  S
C43         C631   1.463       .  S
C44         C551   1.493       .  S
C45         C621   1.474       .  S
C46         C538   1.471       .  S
Zn47         O51   1.946       .  S
Zn47         O52   1.981       .  S
Zn47         O56   2.061       .  S
Zn47         O63   2.014       .  S
Zn48         O51   1.928       .  S
Zn48         O53   2.056       .  S
Zn48         O55   1.999       .  S
Zn48         O59   1.970       .  S
Zn49         O51   1.878       .  S
Zn49         O54   1.940       .  S
Zn49         O57   1.985       .  S
Zn49         O60   1.912       .  S
Zn50         O51   1.950       .  S
Zn50         O58   2.093       .  S
Zn50         O61   2.083       .  S
Zn50         O62   2.060       .  S
O52          C64   1.268       .  A
O53          C65   1.276       .  A
O54          C66   1.266       .  A
O55          C64   1.277       .  A
O56          C66   1.276       .  A
O57          C65   1.267       .  A
O58          C67   1.285       .  A
O59          C68   1.266       .  A
O60          C67   1.262       .  A
O61          C68   1.282       .  A
O62          C69   1.279       .  A
O63          C69   1.275       .  A
C64         C518   1.482       .  S
C65         C601   1.497       .  S
C66         C491   1.465       .  S
C67         C528   1.459       .  S
C68         C508   1.494       .  S
C69         C498   1.502       .  S
Zn70         O74   1.966       .  S
Zn70         O75   2.089       .  S
Zn70         O79   2.062       .  S
Zn70         O86   2.042       .  S
Zn71         O74   1.897       .  S
Zn71         O76   1.975       .  S
Zn71         O78   1.904       .  S
Zn71         O82   1.942       .  S
Zn72         O74   1.942       .  S
Zn72         O77   1.984       .  S
Zn72         O80   2.054       .  S
Zn72         O83   1.986       .  S
Zn73         O74   1.969       .  S
Zn73         O81   2.000       .  S
Zn73         O84   2.073       .  S
Zn73         O85   2.032       .  S
O75          C87   1.283       .  A
O76          C88   1.266       .  A
O77          C89   1.268       .  A
O78          C87   1.260       .  A
O79          C89   1.278       .  A
O80          C88   1.275       .  A
O81          C90   1.274       .  A
O82          C91   1.265       .  A
O83          C90   1.272       .  A
O84          C91   1.278       .  A
O85          C92   1.274       .  A
O86          C92   1.278       .  A
C87        C1167   1.459       .  S
C88         C478   1.496       .  S
C89         C561   1.473       .  S
C90         C521   1.472       .  S
C91         C468   1.473       .  S
C92         C458   1.488       .  S
Zn93        O733   1.860   1_554  S
Zn93         O98   1.974       .  S
Zn93        O102   1.939       .  S
Zn93        O109   1.950       .  S
Zn94         O97   1.908       .  S
Zn94         O99   1.978       .  S
Zn94        O101   2.049       .  S
Zn94        O105   1.996       .  S
Zn95        O733   1.924   1_554  S
Zn95        O100   2.080       .  S
Zn95        O103   2.072   1_554  S
Zn95        O106   2.038   1_554  S
Zn96         O97   1.931       .  S
Zn96        O104   2.017       .  S
Zn96        O107   1.989       .  S
Zn96        O108   2.071       .  S
O97        Zn729   1.860       .  S
O97        Zn731   1.924       .  S
O98         C110   1.266       .  A
O99         C111   1.270       .  A
O100        C112   1.283       .  A
O101        C746   1.278       .  A
O102        C112   1.264       .  A
O103        C747   1.280       .  A
O104        C113   1.273       .  A
O105        C114   1.277       .  A
O106        C749   1.281       .  A
O107        C114   1.274       .  A
O108        C751   1.278       .  A
O109        C115   1.267       .  A
C110        O737   1.278   1_554  A
C110        C608   1.481       .  S
C111        O739   1.280       .  A
C111        C481   1.491       .  S
C112        C428   1.486       .  S
C113        O742   1.281       .  A
C113        C448   1.497       .  S
C114        C418   1.470       .  S
C115        O744   1.278   1_554  A
C115        C438   1.473       .  S
Zn116       O120   1.936       .  S
Zn116       O121   1.973       .  S
Zn116       O125   2.063       .  S
Zn116       O132   1.975       .  S
Zn117       O120   1.981       .  S
Zn117       O122   2.104       .  S
Zn117       O124   2.076       .  S
Zn117       O128   2.065       .  S
Zn118       O120   1.885       .  S
Zn118       O123   1.966       .  S
Zn118       O126   1.887       .  S
Zn118       O129   1.908       .  S
Zn119       O120   1.978       .  S
Zn119       O127   2.102       .  S
Zn119       O130   2.029       .  S
Zn119       O131   2.010       .  S
O121        C133   1.268       .  A
O122        C134   1.283       .  A
O123        C135   1.262       .  A
O124        C133   1.281       .  A
O125        C135   1.276       .  A
O126        C134   1.258       .  A
O127        C136   1.280       .  A
O128        C137   1.280       .  A
O129        C136   1.263       .  A
O130        C137   1.275       .  A
O131        C138   1.276       .  A
O132        C138   1.272       .  A
C133        C571   1.479       .  S
C134        C431   1.486       .  S
C135        C511   1.482       .  S
C136        C411   1.488       .  S
C137        C401   1.485       .  S
C138        C421   1.476       .  S
Zn139       O143   1.964       .  S
Zn139       O144   2.006       .  S
Zn139       O148   2.097       .  S
Zn139       O155   2.066       .  S
Zn140       O143   1.978       .  S
Zn140       O145   2.098       .  S
Zn140       O147   2.021       .  S
Zn140       O151   2.034       .  S
Zn141       O143   1.875       .  S
Zn141       O146   1.893       .  S
Zn141       O149   1.909       .  S
Zn141       O152   1.971       .  S
Zn142       O143   1.929       .  S
Zn142       O150   2.042       .  S
Zn142       O153   1.961       .  S
Zn142       O154   1.959       .  S
O144        C156   1.275       .  A
O145        C157   1.281       .  A
O146        C158   1.259       .  A
O147        C156   1.275       .  A
O148        C158   1.282       .  A
O149        C157   1.262       .  A
O150        C159   1.273       .  A
O151        C160   1.277       .  A
O152        C159   1.265       .  A
O153        C160   1.269       .  A
O154        C161   1.265       .  A
O155        C161   1.279       .  A
C156        C591   1.481       .  S
C157        C408   1.476       .  S
C158        C378   1.473       .  S
C159        C371   1.488       .  S
C160        C388   1.480       .  S
C161        C361   1.468       .  S
Zn162       O166   1.975       .  S
Zn162       O167   2.020       .  S
Zn162       O171   2.090       .  S
Zn162       O178   2.069       .  S
Zn163       O166   1.978       .  S
Zn163       O168   2.115       .  S
Zn163       O170   2.050       .  S
Zn163       O174   2.010       .  S
Zn164       O166   1.884       .  S
Zn164       O169   1.893       .  S
Zn164       O172   1.925       .  S
Zn164       O175   1.974       .  S
Zn165       O166   1.944       .  S
Zn165       O173   2.066       .  S
Zn165       O176   2.002       .  S
Zn165       O177   1.972       .  S
O167        C179   1.275       .  A
O168        C180   1.283       .  A
O169        C181   1.260       .  A
O170        C179   1.279       .  A
O171        C181   1.281       .  A
O172        C180   1.260       .  A
O173        C182   1.278       .  A
O174        C183   1.274       .  A
O175        C182   1.264       .  A
O176        C183   1.276       .  A
O177        C184   1.265       .  A
O178        C184   1.280       .  A
C179        C548   1.479       .  S
C180        C451   1.494       .  S
C181       C1027   1.464       .  S
C182        C348   1.480       .  S
C183        C381   1.469       .  S
C184        C341   1.493       .  S
Zn185       O189   1.878       .  S
Zn185       O190   1.940       .  S
Zn185       O194   1.938       .  S
Zn185       O201   1.929       .  S
Zn186       O189   1.958       .  S
Zn186       O191   2.025       .  S
Zn186       O193   2.074       .  S
Zn186       O197   2.012       .  S
Zn187       O189   1.924       .  S
Zn187       O192   2.083       .  S
Zn187       O195   2.004       .  S
Zn187       O198   1.949       .  S
Zn188       O189   1.962       .  S
Zn188       O196   2.083       .  S
Zn188       O199   2.010       .  S
Zn188       O200   2.083       .  S
O190        C202   1.264       .  A
O191        C203   1.277       .  A
O192        C204   1.278       .  A
O193        C202   1.281       .  A
O194        C204   1.261       .  A
O195        C203   1.275       .  A
O196        C205   1.283       .  A
O197        C206   1.273       .  A
O198        C205   1.266       .  A
O199        C206   1.275       .  A
O200        C207   1.276       .  A
O201        C207   1.257       .  A
C202        C488   1.480       .  S
C203        C954   1.480   1_554  S
C204        C358   1.475       .  S
C205        C308   1.487       .  S
C206        C441   1.473       .  S
C207        C331   1.465       .  S
Zn208       O212   1.987       .  S
Zn208       O213   2.115       .  S
Zn208       O217   2.102       .  S
Zn208       O224   2.059       .  S
Zn209       O212   1.893       .  S
Zn209       O214   1.963       .  S
Zn209       O216   1.905       .  S
Zn209       O220   1.954       .  S
Zn210       O212   1.938       .  S
Zn210       O215   1.957       .  S
Zn210       O218   2.067       .  S
Zn210       O221   1.995       .  S
Zn211       O212   1.966       .  S
Zn211       O219   2.023       .  S
Zn211       O222   2.102       .  S
Zn211       O223   2.032       .  S
O213        C225   1.286       .  A
O214        C226   1.262       .  A
O215        C227   1.267       .  A
O216        C225   1.260       .  A
O217        C227   1.282       .  A
O218        C226   1.279       .  A
O219        C228   1.275       .  A
O220        C229   1.266       .  A
O221        C228   1.274       .  A
O222        C229   1.282       .  A
O223        C230   1.277       .  A
O224        C230   1.280       .  A
C225        C321   1.480       .  S
C226        C338   1.492       .  S
C227        C298   1.503       .  S
C228        C328   1.472       .  S
C229        C461   1.482       .  S
C230        C398   1.494       .  S
Zn231       O235   1.934       .  S
Zn231       O236   2.044       .  S
Zn231       O240   2.007       .  S
Zn231       O247   1.965       .  S
Zn232       O871   1.901       .  S
Zn232       O237   1.946       .  S
Zn232       O239   1.976       .  S
Zn232       O243   1.916       .  S
Zn233       O235   1.963       .  S
Zn233       O238   2.019       .  S
Zn233       O241   2.077       .  S
Zn233       O244   2.006       .  S
Zn234       O871   1.976       .  S
Zn234       O242   2.024   1_554  S
Zn234       O245   2.092       .  S
Zn234       O246   2.084       .  S
O235       Zn868   1.901       .  S
O235       Zn870   1.976       .  S
O236        C884   1.277       .  A
O237        C249   1.264       .  A
O238        C250   1.275       .  A
O239        C248   1.266       .  A
O240        C250   1.275       .  A
O241        C885   1.279       .  A
O242        C887   1.277       .  A
O243        C252   1.262       .  A
O244        C251   1.272       .  A
O245        C252   1.283       .  A
O246        C889   1.279   1_554  A
O247        C253   1.267       .  A
C248        O872   1.277   1_554  A
C248        C311   1.471       .  S
C249        O877   1.279   1_554  A
C249        C581   1.468       .  S
C250        C278   1.487       .  S
C251        O878   1.277       .  A
C251        C471   1.482       .  S
C252        C291   1.471       .  S
C253        O882   1.279       .  A
C253        C351   1.498       .  S
Zn254       O258   1.967       .  S
Zn254       O259   2.092       .  S
Zn254       O263   2.045       .  S
Zn254       O270   2.022       .  S
Zn255       O258   1.897       .  S
Zn255       O260   1.921       .  S
Zn255       O262   1.946       .  S
Zn255       O266   1.986       .  S
Zn256       O258   1.969       .  S
Zn256       O261   2.025       .  S
Zn256       O264   2.080       .  S
Zn256       O267   2.055       .  S
Zn257       O258   1.933       .  S
Zn257       O265   1.968       .  S
Zn257       O268   2.063       .  S
Zn257       O269   1.992       .  S
O259        C271   1.283       .  A
O260        C272   1.262       .  A
O261        C273   1.276       .  A
O262        C271   1.265       .  A
O263        C273   1.276       .  A
O264        C272   1.281       .  A
O265        C274   1.268       .  A
O266        C275   1.267       .  A
O267        C274   1.277       .  A
O268        C275   1.278       .  A
O269        C276   1.274       .  A
O270        C276   1.276       .  A
C271        C541   1.484       .  S
C272        C281   1.462       .  S
C273        C501   1.495       .  S
C274        C368   1.490       .  S
C275        C301   1.491       .  S
C276        C288   1.478       .  S
C277        C278   1.406       .  A
C277        C282   1.400       .  A
C277        H284   1.083       .  S
C278        C279   1.421       .  A
C279        C280   1.399       .  A
C279       Br286   1.919       .  S
C280        C281   1.396       .  A
C280        H285   1.084       .  S
C281        C282   1.409       .  A
C282       Br283   1.920       .  S
C287        C288   1.411       .  A
C287        C292   1.400       .  A
C287        H294   1.084       .  S
C288        C289   1.406       .  A
C289        C290   1.398       .  A
C289       Br296   1.920       .  S
C290        C291   1.410       .  A
C290        H295   1.084       .  S
C291        C292   1.403       .  A
C292       Br293   1.918       .  S
C297        C298   1.415       .  A
C297        C302   1.397       .  A
C297        H304   1.083       .  S
C298        C299   1.413       .  A
C299        C300   1.409       .  A
C299       Br306   1.918       .  S
C300        C301   1.412       .  A
C300        H305   1.083       .  S
C301        C302   1.408       .  A
C302       Br303   1.924       .  S
C307        C308   1.408       .  A
C307        C312   1.407       .  A
C307        H314   1.083       .  S
C308        C309   1.420       .  A
C309        C310   1.392       .  A
C309       Br316   1.927       .  S
C310        C311   1.396       .  A
C310        H315   1.085       .  S
C311        C312   1.410       .  A
C312       Br313   1.917       .  S
C317        C318   1.397       .  A
C317        C322   1.398       .  A
C317        H324   1.084       .  S
C318        C839   1.480       .  S
C318        C319   1.419       .  A
C319        C320   1.403       .  A
C319       Br962   1.921       .  S
C320        C321   1.399       .  A
C320        H325   1.083       .  S
C321        C322   1.421       .  A
C322       Br323   1.926       .  S
Br326       C955   1.921       .  S
C327        C328   1.409       .  A
C327        C332   1.399       .  A
C327        H334   1.084       .  S
C328        C329   1.402       .  A
C329        C330   1.399       .  A
C329       Br336   1.918       .  S
C330        C331   1.410       .  A
C330        H335   1.084       .  S
C331        C332   1.401       .  A
C332       Br333   1.916       .  S
C337        C338   1.400       .  A
C337        C342   1.399       .  A
C337        H344   1.083       .  S
C338        C339   1.423       .  A
C339        C340   1.403       .  A
C339       Br346   1.924       .  S
C340        C341   1.402       .  A
C340        H345   1.083       .  S
C341        C342   1.423       .  A
C342       Br343   1.923       .  S
C347        C348   1.408       .  A
C347        C352   1.409       .  A
C347        H354   1.084       .  S
C348        C349   1.405       .  A
C349        C350   1.396       .  A
C349       Br356   1.922       .  S
C350        C351   1.412       .  A
C350        H355   1.083       .  S
C351        C352   1.416       .  A
C352       Br353   1.919       .  S
C357        C358   1.401       .  A
C357        C362   1.408       .  A
C357        H364   1.083       .  S
C358        C359   1.415       .  A
C359        C360   1.393       .  A
C359       Br366   1.923       .  S
C360        C361   1.395       .  A
C360        H365   1.084       .  S
C361        C362   1.414       .  A
C362       Br363   1.919       .  S
C367        C368   1.412       .  A
C367        C372   1.396       .  A
C367        H374   1.083       .  S
C368        C369   1.410       .  A
C369        C370   1.401       .  A
C369       Br376   1.920       .  S
C370        C371   1.412       .  A
C370        H375   1.083       .  S
C371        C372   1.411       .  A
C372       Br373   1.924       .  S
C377        C378   1.414       .  A
C377        C382   1.397       .  A
C377        H384   1.084       .  S
C378        C379   1.403       .  A
C379        C380   1.399       .  A
C379       Br386   1.917       .  S
C380        C381   1.407       .  A
C380        H385   1.082       .  S
C381        C382   1.400       .  A
C382       Br383   1.918       .  S
C387        C388   1.412       .  A
C387        C392   1.405       .  A
C387        H394   1.083       .  S
C388        C389   1.411       .  A
C389        C390   1.390       .  A
C389       Br396   1.925       .  S
C390        C391   1.404       .  A
C390        H395   1.085       .  S
C391        C817   1.464   1_554  S
C391        C392   1.404       .  A
C392       Br393   1.916       .  S
C397        C398   1.412       .  A
C397        C402   1.407   1_655  A
C397        H404   1.083       .  S
C398        C399   1.411       .  A
C399        C400   1.406   1_655  A
C399       Br406   1.919       .  S
C400        C401   1.407       .  A
C400        H405   1.084       .  S
C401        C402   1.405       .  A
C402       Br403   1.916       .  S
C407        C408   1.410       .  A
C407        C412   1.415       .  A
C407        H414   1.083       .  S
C408        C409   1.409       .  A
C409        C410   1.382       .  A
C409       Br416   1.929       .  S
C410        C411   1.406       .  A
C410        H415   1.084       .  S
C411        C412   1.415       .  A
C412       Br413   1.916       .  S
C417        C418   1.405       .  A
C417        C422   1.392       .  A
C417        H424   1.084       .  S
C418        C419   1.407       .  A
C419        C420   1.398       .  A
C419       Br426   1.920       .  S
C420        C421   1.409       .  A
C420        H425   1.083       .  S
C421        C422   1.410       .  A
C422       Br423   1.922       .  S
C427        C428   1.418       .  A
C427        C432   1.400       .  A
C427        H434   1.083       .  S
C428        C429   1.405       .  A
C429        C430   1.393       .  A
C429       Br436   1.923       .  S
C430        C431   1.416       .  A
C430        H435   1.083       .  S
C431        C432   1.403       .  A
C432       Br433   1.918       .  S
C437        C438   1.406       .  A
C437        C442   1.391   1_455  A
C437        H444   1.084       .  S
C438        C439   1.405   1_455  A
C439        C440   1.405       .  A
C439      Br1082   1.917   1_554  S
C440        C441   1.410       .  A
C440        H445   1.083       .  S
C441        C442   1.404       .  A
C442       Br443   1.921       .  S
Br446      C1075   1.917       .  S
C447        C448   1.402       .  A
C447        C452   1.392       .  A
C447        H454   1.083       .  S
C448        C449   1.423       .  A
C449        C450   1.411       .  A
C449       Br456   1.920       .  S
C450        C451   1.405       .  A
C450        H455   1.083       .  S
C451        C452   1.421       .  A
C452       Br453   1.930       .  S
C457        C458   1.404       .  A
C457        C462   1.397       .  A
C457        H464   1.084       .  S
C458        C459   1.413       .  A
C459        C460   1.411   1_565  A
C459       Br466   1.916       .  S
C460        C461   1.407       .  A
C460        H465   1.083       .  S
C461        C462   1.410   1_545  A
C462       Br463   1.921   1_565  S
C467        C468   1.404       .  A
C467        C472   1.407       .  A
C467        H474   1.083       .  S
C468        C469   1.409       .  A
C469        C470   1.391       .  A
C469       Br476   1.923       .  S
C470        C471   1.404       .  A
C470        H475   1.084       .  S
C471        C472   1.416       .  A
C472       Br473   1.919       .  S
C477        C478   1.415       .  A
C477        C482   1.403       .  A
C477        H484   1.083       .  S
C478        C479   1.413       .  A
C479        C480   1.400       .  A
C479       Br486   1.922       .  S
C480        C481   1.410       .  A
C480        H485   1.083       .  S
C481        C482   1.409       .  A
C482      Br1119   1.920       .  S
Br483      C1118   1.920   1_554  S
C487        C488   1.407       .  A
C487        C492   1.406   1_545  A
C487        H494   1.083       .  S
C488        C489   1.419       .  A
C489        C490   1.388   1_545  A
C489       Br496   1.929       .  S
C490        C491   1.396       .  A
C490        H495   1.085       .  S
C491        C492   1.408       .  A
C492       Br493   1.916       .  S
C497        C498   1.413       .  A
C497        C502   1.407       .  A
C497        H504   1.083       .  S
C498        C499   1.418       .  A
C499        C500   1.402       .  A
C499       Br506   1.923       .  S
C500        C501   1.407       .  A
C500        H505   1.084       .  S
C501        C502   1.412       .  A
C502       Br503   1.920       .  S
C507        C508   1.406       .  A
C507        C512   1.405       .  A
C507        H514   1.083       .  S
C508        C509   1.422       .  A
C509        C510   1.398       .  A
C509       Br516   1.924       .  S
C510        C511   1.398       .  A
C510        H515   1.084       .  S
C511        C512   1.415       .  A
C512       Br513   1.921       .  S
C517        C518   1.403       .  A
C517        C522   1.391       .  A
C517        H524   1.084       .  S
C518        C519   1.421       .  A
C519        C520   1.397       .  A
C519       Br526   1.925       .  S
C520        C521   1.400       .  A
C520        H525   1.084       .  S
C521        C522   1.414       .  A
C522       Br523   1.924       .  S
C527        C528   1.402       .  A
C527        C532   1.397       .  A
C527        H534   1.084       .  S
C528        C529   1.409       .  A
C529        C530   1.399       .  A
C529       Br536   1.920       .  S
C530        C531   1.401       .  A
C530        H535   1.084       .  S
C531        C723   1.459   1_554  S
C531        C532   1.409       .  A
C532       Br533   1.920       .  S
C537        C538   1.393       .  A
C537        C542   1.396   1_455  A
C537        H544   1.084       .  S
C538        C539   1.412       .  A
C539        C540   1.403   1_455  A
C539       Br546   1.917       .  S
C540        C541   1.402       .  A
C540        H545   1.083       .  S
C541        C542   1.423       .  A
C542       Br543   1.924       .  S
C547        C548   1.399       .  A
C547        C552   1.407   1_545  A
C547        H554   1.083       .  S
C548        C549   1.410       .  A
C549        C550   1.399   1_545  A
C549       Br556   1.918       .  S
C550        C551   1.403       .  A
C550        H555   1.083       .  S
C551        C552   1.424       .  A
C552       Br553   1.923       .  S
C557        C558   1.413       .  A
C557        C562   1.394       .  A
C557        H564   1.081       .  S
C558        C559   1.415       .  A
C559        C560   1.410       .  A
C559       Br566   1.918       .  S
C560        C561   1.407       .  A
C560        H565   1.083       .  S
C561        C562   1.399       .  A
C562       Br563   1.920       .  S
C567        C568   1.414       .  A
C567        C572   1.401       .  A
C567        H574   1.083       .  S
C568        C569   1.411       .  A
C569        C570   1.403       .  A
C569       Br576   1.919       .  S
C570        C571   1.408       .  A
C570        H575   1.084       .  S
C571        C572   1.403       .  A
C572       Br573   1.919       .  S
C577        C578   1.410       .  A
C577        C582   1.394       .  A
C577        H584   1.084       .  S
C578        C579   1.407       .  A
C579        C580   1.407   1_455  A
C579       Br586   1.917       .  S
C580        C581   1.410       .  A
C580        H585   1.084       .  S
C581        C582   1.400   1_655  A
C582      Br1219   1.919   1_554  S
Br583      C1218   1.919       .  S
C587        C588   1.411       .  A
C587        C592   1.403   1_565  A
C587        H594   1.083       .  S
C588        C589   1.415       .  A
C589        C590   1.394   1_565  A
C589       Br596   1.925       .  S
C590        C591   1.404       .  A
C590        H595   1.084       .  S
C591        C592   1.409       .  A
C592       Br593   1.919       .  S
C597        C598   1.408       .  A
C597        C602   1.400       .  A
C597        H604   1.084       .  S
C598        C599   1.405       .  A
C599        C600   1.403       .  A
C599       Br606   1.918       .  S
C600        C601   1.415       .  A
C600        H605   1.083       .  S
C601        C602   1.414       .  A
C602       Br603   1.921       .  S
C607        C608   1.396       .  A
C607        C612   1.396       .  A
C607       H1250   1.084   1_554  S
C608        C609   1.416       .  A
C609        C610   1.401       .  A
C609       Br616   1.923       .  S
C610        C611   1.404       .  A
C610        H615   1.083       .  S
C611        C612   1.426       .  A
C612       Br613   1.928       .  S
H614       C1243   1.084       .  S
C617        C618   1.396       .  A
C617        C622   1.396       .  A
C617        H624   1.084       .  S
C618        C657   1.470       .  S
C618        C619   1.414       .  A
C619        C620   1.397       .  A
C619      Br1262   1.919       .  S
C620        C621   1.400       .  A
C620        H625   1.084       .  S
C621        C622   1.415       .  A
C622       Br623   1.911       .  S
Br626      C1255   1.919       .  S
C627        C628   1.412       .  A
C627        C632   1.398       .  A
C627        H634   1.083       .  S
C628        C629   1.414       .  A
C629        C630   1.400       .  A
C629       Br636   1.922       .  S
C630        C631   1.405       .  A
C630        H635   1.084       .  S
C631        C632   1.402       .  A
C632       Br633   1.918       .  S
Zn637       O641   1.941       .  S
Zn637       O642   2.014       .  S
Zn637       O646   2.085       .  S
Zn637       O653   2.001       .  S
Zn638       O641   1.931       .  S
Zn638       O643   2.075       .  S
Zn638       O645   2.003       .  S
Zn638       O649   1.977       .  S
Zn639       O641   1.867       .  S
Zn639       O644   1.953       .  S
Zn639       O647   1.942       .  S
Zn639       O650   1.927       .  S
Zn640       O641   1.952       .  S
Zn640       O648   2.074       .  S
Zn640       O651   2.072       .  S
Zn640       O652   2.024       .  S
O642        C654   1.276       .  A
O643        C655   1.280       .  A
O644        C656   1.266       .  A
O645        C654   1.278       .  A
O646        C656   1.279       .  A
O647        C655   1.260       .  A
O648        C657   1.282       .  A
O649        C658   1.269       .  A
O650        C657   1.264       .  A
O651        C658   1.280       .  A
O652        C659   1.275       .  A
O653        C659   1.272       .  A
C654       C1264   1.488       .  S
C655       C1247   1.492       .  S
C656       C1214   1.484       .  S
C658       C1234   1.485       .  S
C659       C1224   1.487       .  S
Zn660       O664   1.907       .  S
Zn660       O665   1.975       .  S
Zn660       O669   1.905       .  S
Zn660       O676   1.967       .  S
Zn661       O664   1.948       .  S
Zn661       O666   1.979       .  S
Zn661       O668   2.074       .  S
Zn661       O672   2.020       .  S
Zn662       O664   1.987       .  S
Zn662       O667   2.093       .  S
Zn662       O670   2.084       .  S
Zn662       O673   2.057       .  S
Zn663       O664   1.962       .  S
Zn663       O671   2.006       .  S
Zn663       O674   1.991       .  S
Zn663       O675   2.057       .  S
O665        C677   1.267       .  A
O666        C678   1.270       .  A
O667        C679   1.282       .  A
O668        C677   1.279       .  A
O669        C679   1.260       .  A
O670        C678   1.280       .  A
O671        C680   1.272       .  A
O672        C681   1.277       .  A
O673        C680   1.280       .  A
O674        C681   1.272       .  A
O675        C682   1.276       .  A
O676        C682   1.266       .  A
C677       C1204   1.494       .  S
C678       C1194   1.498       .  S
C679       C1267   1.463       .  S
C680       C1187   1.493       .  S
C681       C1257   1.474       .  S
C682       C1174   1.471       .  S
Zn683       O687   1.946       .  S
Zn683       O688   1.981       .  S
Zn683       O692   2.061       .  S
Zn683       O699   2.014       .  S
Zn684       O687   1.928       .  S
Zn684       O689   2.056       .  S
Zn684       O691   1.999       .  S
Zn684       O695   1.970       .  S
Zn685       O687   1.878       .  S
Zn685       O690   1.940       .  S
Zn685       O693   1.985       .  S
Zn685       O696   1.912       .  S
Zn686       O687   1.950       .  S
Zn686       O694   2.093       .  S
Zn686       O697   2.083       .  S
Zn686       O698   2.060       .  S
O688        C700   1.268       .  A
O689        C701   1.276       .  A
O690        C702   1.266       .  A
O691        C700   1.277       .  A
O692        C702   1.276       .  A
O693        C701   1.267       .  A
O694        C703   1.285       .  A
O695        C704   1.266       .  A
O696        C703   1.262       .  A
O697        C704   1.282       .  A
O698        C705   1.279       .  A
O699        C705   1.275       .  A
C700       C1154   1.482       .  S
C701       C1237   1.497       .  S
C702       C1127   1.465       .  S
C703       C1164   1.459       .  S
C704       C1144   1.494       .  S
C705       C1134   1.502       .  S
Zn706       O710   1.966       .  S
Zn706       O711   2.089       .  S
Zn706       O715   2.062       .  S
Zn706       O722   2.042       .  S
Zn707       O710   1.897       .  S
Zn707       O712   1.975       .  S
Zn707       O714   1.904       .  S
Zn707       O718   1.942       .  S
Zn708       O710   1.942       .  S
Zn708       O713   1.984       .  S
Zn708       O716   2.054       .  S
Zn708       O719   1.986       .  S
Zn709       O710   1.969       .  S
Zn709       O717   2.000       .  S
Zn709       O720   2.073       .  S
Zn709       O721   2.032       .  S
O711        C723   1.283       .  A
O712        C724   1.266       .  A
O713        C725   1.268       .  A
O714        C723   1.260       .  A
O715        C725   1.278       .  A
O716        C724   1.275       .  A
O717        C726   1.274       .  A
O718        C727   1.265       .  A
O719        C726   1.272       .  A
O720        C727   1.278       .  A
O721        C728   1.274       .  A
O722        C728   1.278       .  A
C724       C1114   1.496       .  S
C725       C1197   1.473       .  S
C726       C1157   1.472       .  S
C727       C1104   1.473       .  S
C728       C1094   1.488       .  S
Zn729       O734   1.974       .  S
Zn729       O738   1.939       .  S
Zn729       O745   1.950       .  S
Zn730       O733   1.908       .  S
Zn730       O735   1.978       .  S
Zn730       O737   2.049       .  S
Zn730       O741   1.996       .  S
Zn731       O736   2.080       .  S
Zn731       O739   2.072       .  S
Zn731       O742   2.038       .  S
Zn732       O733   1.931       .  S
Zn732       O740   2.017       .  S
Zn732       O743   1.989       .  S
Zn732       O744   2.071       .  S
O734        C746   1.266       .  A
O735        C747   1.270       .  A
O736        C748   1.283       .  A
O738        C748   1.264       .  A
O740        C749   1.273       .  A
O741        C750   1.277       .  A
O743        C750   1.274       .  A
O745        C751   1.267       .  A
C746       C1244   1.481       .  S
C747       C1117   1.491       .  S
C748       C1064   1.486       .  S
C749       C1084   1.497       .  S
C750       C1054   1.470       .  S
C751       C1074   1.473       .  S
Zn752       O756   1.936       .  S
Zn752       O757   1.973       .  S
Zn752       O761   2.063       .  S
Zn752       O768   1.975       .  S
Zn753       O756   1.981       .  S
Zn753       O758   2.104       .  S
Zn753       O760   2.076       .  S
Zn753       O764   2.065       .  S
Zn754       O756   1.885       .  S
Zn754       O759   1.966       .  S
Zn754       O762   1.887       .  S
Zn754       O765   1.908       .  S
Zn755       O756   1.978       .  S
Zn755       O763   2.102       .  S
Zn755       O766   2.029       .  S
Zn755       O767   2.010       .  S
O757        C769   1.268       .  A
O758        C770   1.283       .  A
O759        C771   1.262       .  A
O760        C769   1.281       .  A
O761        C771   1.276       .  A
O762        C770   1.258       .  A
O763        C772   1.280       .  A
O764        C773   1.280       .  A
O765        C772   1.263       .  A
O766        C773   1.275       .  A
O767        C774   1.276       .  A
O768        C774   1.272       .  A
C769       C1207   1.479       .  S
C770       C1067   1.486       .  S
C771       C1147   1.482       .  S
C772       C1047   1.488       .  S
C773       C1037   1.485       .  S
C774       C1057   1.476       .  S
Zn775       O779   1.964       .  S
Zn775       O780   2.006       .  S
Zn775       O784   2.097       .  S
Zn775       O791   2.066       .  S
Zn776       O779   1.978       .  S
Zn776       O781   2.098       .  S
Zn776       O783   2.021       .  S
Zn776       O787   2.034       .  S
Zn777       O779   1.875       .  S
Zn777       O782   1.893       .  S
Zn777       O785   1.909       .  S
Zn777       O788   1.971       .  S
Zn778       O779   1.929       .  S
Zn778       O786   2.042       .  S
Zn778       O789   1.961       .  S
Zn778       O790   1.959       .  S
O780        C792   1.275       .  A
O781        C793   1.281       .  A
O782        C794   1.259       .  A
O783        C792   1.275       .  A
O784        C794   1.282       .  A
O785        C793   1.262       .  A
O786        C795   1.273       .  A
O787        C796   1.277       .  A
O788        C795   1.265       .  A
O789        C796   1.269       .  A
O790        C797   1.265       .  A
O791        C797   1.279       .  A
C792       C1227   1.481       .  S
C793       C1044   1.476       .  S
C794       C1014   1.473       .  S
C795       C1007   1.488       .  S
C796       C1024   1.480       .  S
C797        C997   1.468       .  S
Zn798       O802   1.975       .  S
Zn798       O803   2.020       .  S
Zn798       O807   2.090       .  S
Zn798       O814   2.069       .  S
Zn799       O802   1.978       .  S
Zn799       O804   2.115       .  S
Zn799       O806   2.050       .  S
Zn799       O810   2.010       .  S
Zn800       O802   1.884       .  S
Zn800       O805   1.893       .  S
Zn800       O808   1.925       .  S
Zn800       O811   1.974       .  S
Zn801       O802   1.944       .  S
Zn801       O809   2.066       .  S
Zn801       O812   2.002       .  S
Zn801       O813   1.972       .  S
O803        C815   1.275       .  A
O804        C816   1.283       .  A
O805        C817   1.260       .  A
O806        C815   1.279       .  A
O807        C817   1.281       .  A
O808        C816   1.260       .  A
O809        C818   1.278       .  A
O810        C819   1.274       .  A
O811        C818   1.264       .  A
O812        C819   1.276       .  A
O813        C820   1.265       .  A
O814        C820   1.280       .  A
C815       C1184   1.479       .  S
C816       C1087   1.494       .  S
C818        C984   1.480       .  S
C819       C1017   1.469       .  S
C820        C977   1.493       .  S
Zn821       O825   1.878       .  S
Zn821       O826   1.940       .  S
Zn821       O830   1.938       .  S
Zn821       O837   1.929       .  S
Zn822       O825   1.958       .  S
Zn822       O827   2.025       .  S
Zn822       O829   2.074       .  S
Zn822       O833   2.012       .  S
Zn823       O825   1.924       .  S
Zn823       O828   2.083       .  S
Zn823       O831   2.004       .  S
Zn823       O834   1.949       .  S
Zn824       O825   1.962       .  S
Zn824       O832   2.083       .  S
Zn824       O835   2.010       .  S
Zn824       O836   2.083       .  S
O826        C838   1.264       .  A
O827        C839   1.277       .  A
O828        C840   1.278       .  A
O829        C838   1.281       .  A
O830        C840   1.261       .  A
O831        C839   1.275       .  A
O832        C841   1.283       .  A
O833        C842   1.273       .  A
O834        C841   1.266       .  A
O835        C842   1.275       .  A
O836        C843   1.276       .  A
O837        C843   1.257       .  A
C838       C1124   1.480       .  S
C840        C994   1.475       .  S
C841        C944   1.487       .  S
C842       C1077   1.473       .  S
C843        C967   1.465       .  S
Zn844       O848   1.987       .  S
Zn844       O849   2.115       .  S
Zn844       O853   2.102       .  S
Zn844       O860   2.059       .  S
Zn845       O848   1.893       .  S
Zn845       O850   1.963       .  S
Zn845       O852   1.905       .  S
Zn845       O856   1.954       .  S
Zn846       O848   1.938       .  S
Zn846       O851   1.957       .  S
Zn846       O854   2.067       .  S
Zn846       O857   1.995       .  S
Zn847       O848   1.966       .  S
Zn847       O855   2.023       .  S
Zn847       O858   2.102       .  S
Zn847       O859   2.032       .  S
O849        C861   1.286       .  A
O850        C862   1.262       .  A
O851        C863   1.267       .  A
O852        C861   1.260       .  A
O853        C863   1.282       .  A
O854        C862   1.279       .  A
O855        C864   1.275       .  A
O856        C865   1.266       .  A
O857        C864   1.274       .  A
O858        C865   1.282       .  A
O859        C866   1.277       .  A
O860        C866   1.280       .  A
C861        C957   1.480       .  S
C862        C974   1.492       .  S
C863        C934   1.503       .  S
C864        C964   1.472       .  S
C865       C1097   1.482       .  S
C866       C1034   1.494       .  S
Zn867       O871   1.934   1_556  S
Zn867       O872   2.044       .  S
Zn867       O876   2.007       .  S
Zn867       O883   1.965       .  S
Zn868       O873   1.946       .  S
Zn868       O875   1.976       .  S
Zn868       O879   1.916       .  S
Zn869       O871   1.963   1_556  S
Zn869       O874   2.019       .  S
Zn869       O877   2.077       .  S
Zn869       O880   2.006       .  S
Zn870       O878   2.024       .  S
Zn870       O881   2.092       .  S
Zn870       O882   2.084       .  S
O873        C885   1.264       .  A
O874        C886   1.275       .  A
O875        C884   1.266       .  A
O876        C886   1.275       .  A
O879        C888   1.262       .  A
O880        C887   1.272       .  A
O881        C888   1.283       .  A
O883        C889   1.267       .  A
C884        C947   1.471       .  S
C885       C1217   1.468       .  S
C886        C914   1.487       .  S
C887       C1107   1.482       .  S
C888        C927   1.471       .  S
C889        C987   1.498       .  S
Zn890       O894   1.967       .  S
Zn890       O895   2.092       .  S
Zn890       O899   2.045       .  S
Zn890       O906   2.022       .  S
Zn891       O894   1.897       .  S
Zn891       O896   1.921       .  S
Zn891       O898   1.946       .  S
Zn891       O902   1.986       .  S
Zn892       O894   1.969       .  S
Zn892       O897   2.025       .  S
Zn892       O900   2.080       .  S
Zn892       O903   2.055       .  S
Zn893       O894   1.933       .  S
Zn893       O901   1.968       .  S
Zn893       O904   2.063       .  S
Zn893       O905   1.992       .  S
O895        C907   1.283       .  A
O896        C908   1.262       .  A
O897        C909   1.276       .  A
O898        C907   1.265       .  A
O899        C909   1.276       .  A
O900        C908   1.281       .  A
O901        C910   1.268       .  A
O902        C911   1.267       .  A
O903        C910   1.277       .  A
O904        C911   1.278       .  A
O905        C912   1.274       .  A
O906        C912   1.276       .  A
C907       C1177   1.484       .  S
C908        C917   1.462       .  S
C909       C1137   1.495       .  S
C910       C1004   1.490       .  S
C911        C937   1.491       .  S
C912        C924   1.478       .  S
C913        C914   1.406       .  A
C913        C918   1.400       .  A
C913        H920   1.083       .  S
C914        C915   1.421       .  A
C915        C916   1.399       .  A
C915       Br922   1.919       .  S
C916        C917   1.396       .  A
C916        H921   1.084       .  S
C917        C918   1.409       .  A
C918       Br919   1.920       .  S
C923        C924   1.411       .  A
C923        C928   1.400       .  A
C923        H930   1.084       .  S
C924        C925   1.406       .  A
C925        C926   1.398       .  A
C925       Br932   1.920       .  S
C926        C927   1.410       .  A
C926        H931   1.084       .  S
C927        C928   1.403       .  A
C928       Br929   1.918       .  S
C933        C934   1.415       .  A
C933        C938   1.397       .  A
C933        H940   1.083       .  S
C934        C935   1.413       .  A
C935        C936   1.409       .  A
C935       Br942   1.918       .  S
C936        C937   1.412       .  A
C936        H941   1.083       .  S
C937        C938   1.408       .  A
C938       Br939   1.924       .  S
C943        C944   1.408       .  A
C943        C948   1.407       .  A
C943        H950   1.083       .  S
C944        C945   1.420       .  A
C945        C946   1.392       .  A
C945       Br952   1.927       .  S
C946        C947   1.396       .  A
C946        H951   1.085       .  S
C947        C948   1.410       .  A
C948       Br949   1.917       .  S
C953        C954   1.397       .  A
C953        C958   1.398       .  A
C953        H960   1.084       .  S
C954        C955   1.419       .  A
C955        C956   1.403       .  A
C956        C957   1.399       .  A
C956        H961   1.083       .  S
C957        C958   1.421       .  A
C958       Br959   1.926       .  S
C963        C964   1.409       .  A
C963        C968   1.399       .  A
C963        H970   1.084       .  S
C964        C965   1.402       .  A
C965        C966   1.399       .  A
C965       Br972   1.918       .  S
C966        C967   1.410       .  A
C966        H971   1.084       .  S
C967        C968   1.401       .  A
C968       Br969   1.916       .  S
C973        C974   1.400       .  A
C973        C978   1.399       .  A
C973        H980   1.083       .  S
C974        C975   1.423       .  A
C975        C976   1.403       .  A
C975       Br982   1.924       .  S
C976        C977   1.402       .  A
C976        H981   1.083       .  S
C977        C978   1.423       .  A
C978       Br979   1.923       .  S
C983        C984   1.408       .  A
C983        C988   1.409       .  A
C983        H990   1.084       .  S
C984        C985   1.405       .  A
C985        C986   1.396       .  A
C985       Br992   1.922       .  S
C986        C987   1.412       .  A
C986        H991   1.083       .  S
C987        C988   1.416       .  A
C988       Br989   1.919       .  S
C993        C994   1.401       .  A
C993        C998   1.408       .  A
C993       H1000   1.083       .  S
C994        C995   1.415       .  A
C995        C996   1.393       .  A
C995      Br1002   1.923       .  S
C996        C997   1.395       .  A
C996       H1001   1.084       .  S
C997        C998   1.414       .  A
C998       Br999   1.919       .  S
C1003      C1004   1.412       .  A
C1003      C1008   1.396       .  A
C1003      H1010   1.083       .  S
C1004      C1005   1.410       .  A
C1005      C1006   1.401       .  A
C1005     Br1012   1.920       .  S
C1006      C1007   1.412       .  A
C1006      H1011   1.083       .  S
C1007      C1008   1.411       .  A
C1008     Br1009   1.924       .  S
C1013      C1014   1.414       .  A
C1013      C1018   1.397       .  A
C1013      H1020   1.084       .  S
C1014      C1015   1.403       .  A
C1015      C1016   1.399       .  A
C1015     Br1022   1.917       .  S
C1016      C1017   1.407       .  A
C1016      H1021   1.082       .  S
C1017      C1018   1.400       .  A
C1018     Br1019   1.918       .  S
C1023      C1024   1.412       .  A
C1023      C1028   1.405       .  A
C1023      H1030   1.083       .  S
C1024      C1025   1.411       .  A
C1025      C1026   1.390       .  A
C1025     Br1032   1.925       .  S
C1026      C1027   1.404       .  A
C1026      H1031   1.085       .  S
C1027      C1028   1.404       .  A
C1028     Br1029   1.916       .  S
C1033      C1034   1.412       .  A
C1033      C1038   1.407   1_655  A
C1033      H1040   1.083       .  S
C1034      C1035   1.411       .  A
C1035      C1036   1.406   1_655  A
C1035     Br1042   1.919       .  S
C1036      C1037   1.407       .  A
C1036      H1041   1.084       .  S
C1037      C1038   1.405       .  A
C1038     Br1039   1.916       .  S
C1043      C1044   1.410       .  A
C1043      C1048   1.415       .  A
C1043      H1050   1.083       .  S
C1044      C1045   1.409       .  A
C1045      C1046   1.382       .  A
C1045     Br1052   1.929       .  S
C1046      C1047   1.406       .  A
C1046      H1051   1.084       .  S
C1047      C1048   1.415       .  A
C1048     Br1049   1.916       .  S
C1053      C1054   1.405       .  A
C1053      C1058   1.392       .  A
C1053      H1060   1.084       .  S
C1054      C1055   1.407       .  A
C1055      C1056   1.398       .  A
C1055     Br1062   1.920       .  S
C1056      C1057   1.409       .  A
C1056      H1061   1.083       .  S
C1057      C1058   1.410       .  A
C1058     Br1059   1.922       .  S
C1063      C1064   1.418       .  A
C1063      C1068   1.400       .  A
C1063      H1070   1.083       .  S
C1064      C1065   1.405       .  A
C1065      C1066   1.393       .  A
C1065     Br1072   1.923       .  S
C1066      C1067   1.416       .  A
C1066      H1071   1.083       .  S
C1067      C1068   1.403       .  A
C1068     Br1069   1.918       .  S
C1073      C1074   1.406       .  A
C1073      C1078   1.391   1_455  A
C1073      H1080   1.084       .  S
C1074      C1075   1.405   1_455  A
C1075      C1076   1.405       .  A
C1076      C1077   1.410       .  A
C1076      H1081   1.083       .  S
C1077      C1078   1.404       .  A
C1078     Br1079   1.921       .  S
C1083      C1084   1.402       .  A
C1083      C1088   1.392       .  A
C1083      H1090   1.083       .  S
C1084      C1085   1.423       .  A
C1085      C1086   1.411       .  A
C1085     Br1092   1.920       .  S
C1086      C1087   1.405       .  A
C1086      H1091   1.083       .  S
C1087      C1088   1.421       .  A
C1088     Br1089   1.930       .  S
C1093      C1094   1.404       .  A
C1093      C1098   1.397       .  A
C1093      H1100   1.084       .  S
C1094      C1095   1.413       .  A
C1095      C1096   1.411   1_565  A
C1095     Br1102   1.916       .  S
C1096      C1097   1.407       .  A
C1096      H1101   1.083       .  S
C1097      C1098   1.410   1_545  A
C1098     Br1099   1.921   1_565  S
C1103      C1104   1.404       .  A
C1103      C1108   1.407       .  A
C1103      H1110   1.083       .  S
C1104      C1105   1.409       .  A
C1105      C1106   1.391       .  A
C1105     Br1112   1.923       .  S
C1106      C1107   1.404       .  A
C1106      H1111   1.084       .  S
C1107      C1108   1.416       .  A
C1108     Br1109   1.919       .  S
C1113      C1114   1.415       .  A
C1113      C1118   1.403       .  A
C1113      H1120   1.083       .  S
C1114      C1115   1.413       .  A
C1115      C1116   1.400       .  A
C1115     Br1122   1.922       .  S
C1116      C1117   1.410       .  A
C1116      H1121   1.083       .  S
C1117      C1118   1.409       .  A
C1123      C1124   1.407       .  A
C1123      C1128   1.406   1_545  A
C1123      H1130   1.083       .  S
C1124      C1125   1.419       .  A
C1125      C1126   1.388   1_545  A
C1125     Br1132   1.929       .  S
C1126      C1127   1.396       .  A
C1126      H1131   1.085       .  S
C1127      C1128   1.408       .  A
C1128     Br1129   1.916       .  S
C1133      C1134   1.413       .  A
C1133      C1138   1.407       .  A
C1133      H1140   1.083       .  S
C1134      C1135   1.418       .  A
C1135      C1136   1.402       .  A
C1135     Br1142   1.923       .  S
C1136      C1137   1.407       .  A
C1136      H1141   1.084       .  S
C1137      C1138   1.412       .  A
C1138     Br1139   1.920       .  S
C1143      C1144   1.406       .  A
C1143      C1148   1.405       .  A
C1143      H1150   1.083       .  S
C1144      C1145   1.422       .  A
C1145      C1146   1.398       .  A
C1145     Br1152   1.924       .  S
C1146      C1147   1.398       .  A
C1146      H1151   1.084       .  S
C1147      C1148   1.415       .  A
C1148     Br1149   1.921       .  S
C1153      C1154   1.403       .  A
C1153      C1158   1.391       .  A
C1153      H1160   1.084       .  S
C1154      C1155   1.421       .  A
C1155      C1156   1.397       .  A
C1155     Br1162   1.925       .  S
C1156      C1157   1.400       .  A
C1156      H1161   1.084       .  S
C1157      C1158   1.414       .  A
C1158     Br1159   1.924       .  S
C1163      C1164   1.402       .  A
C1163      C1168   1.397       .  A
C1163      H1170   1.084       .  S
C1164      C1165   1.409       .  A
C1165      C1166   1.399       .  A
C1165     Br1172   1.920       .  S
C1166      C1167   1.401       .  A
C1166      H1171   1.084       .  S
C1167      C1168   1.409       .  A
C1168     Br1169   1.920       .  S
C1173      C1174   1.393       .  A
C1173      C1178   1.396   1_455  A
C1173      H1180   1.084       .  S
C1174      C1175   1.412       .  A
C1175      C1176   1.403   1_455  A
C1175     Br1182   1.917       .  S
C1176      C1177   1.402       .  A
C1176      H1181   1.083       .  S
C1177      C1178   1.423       .  A
C1178     Br1179   1.924       .  S
C1183      C1184   1.399       .  A
C1183      C1188   1.407   1_545  A
C1183      H1190   1.083       .  S
C1184      C1185   1.410       .  A
C1185      C1186   1.399   1_545  A
C1185     Br1192   1.918       .  S
C1186      C1187   1.403       .  A
C1186      H1191   1.083       .  S
C1187      C1188   1.424       .  A
C1188     Br1189   1.923       .  S
C1193      C1194   1.413       .  A
C1193      C1198   1.394       .  A
C1193      H1200   1.081       .  S
C1194      C1195   1.415       .  A
C1195      C1196   1.410       .  A
C1195     Br1202   1.918       .  S
C1196      C1197   1.407       .  A
C1196      H1201   1.083       .  S
C1197      C1198   1.399       .  A
C1198     Br1199   1.920       .  S
C1203      C1204   1.414       .  A
C1203      C1208   1.401       .  A
C1203      H1210   1.083       .  S
C1204      C1205   1.411       .  A
C1205      C1206   1.403       .  A
C1205     Br1212   1.919       .  S
C1206      C1207   1.408       .  A
C1206      H1211   1.084       .  S
C1207      C1208   1.403       .  A
C1208     Br1209   1.919       .  S
C1213      C1214   1.410       .  A
C1213      C1218   1.394       .  A
C1213      H1220   1.084       .  S
C1214      C1215   1.407       .  A
C1215      C1216   1.407   1_455  A
C1215     Br1222   1.917       .  S
C1216      C1217   1.410       .  A
C1216      H1221   1.084       .  S
C1217      C1218   1.400   1_655  A
C1223      C1224   1.411       .  A
C1223      C1228   1.403   1_565  A
C1223      H1230   1.083       .  S
C1224      C1225   1.415       .  A
C1225      C1226   1.394   1_565  A
C1225     Br1232   1.925       .  S
C1226      C1227   1.404       .  A
C1226      H1231   1.084       .  S
C1227      C1228   1.409       .  A
C1228     Br1229   1.919       .  S
C1233      C1234   1.408       .  A
C1233      C1238   1.400       .  A
C1233      H1240   1.084       .  S
C1234      C1235   1.405       .  A
C1235      C1236   1.403       .  A
C1235     Br1242   1.918       .  S
C1236      C1237   1.415       .  A
C1236      H1241   1.083       .  S
C1237      C1238   1.414       .  A
C1238     Br1239   1.921       .  S
C1243      C1244   1.396       .  A
C1243      C1248   1.396       .  A
C1244      C1245   1.416       .  A
C1245      C1246   1.401       .  A
C1245     Br1252   1.923       .  S
C1246      C1247   1.404       .  A
C1246      H1251   1.083       .  S
C1247      C1248   1.426       .  A
C1248     Br1249   1.928       .  S
C1253      C1254   1.396       .  A
C1253      C1258   1.396       .  A
C1253      H1260   1.084       .  S
C1254      C1255   1.414       .  A
C1255      C1256   1.397       .  A
C1256      C1257   1.400       .  A
C1256      H1261   1.084       .  S
C1257      C1258   1.415       .  A
C1258     Br1259   1.911       .  S
C1263      C1264   1.412       .  A
C1263      C1268   1.398       .  A
C1263      H1270   1.083       .  S
C1264      C1265   1.414       .  A
C1265      C1266   1.400       .  A
C1265     Br1272   1.922       .  S
C1266      C1267   1.405       .  A
C1266      H1271   1.084       .  S
C1267      C1268   1.402       .  A
C1268     Br1269   1.918       .  S
