geometry optimzed in LAMMPS
_audit_creation_date              2020-11-30 
_audit_creation_method            'lammps2cif' 
_symmetry_space_group_name_H-M    'P1' 
_symmetry_Int_Tables_number       1 
_symmetry_cell_setting            triclinic 
loop_ 
_symmetry_equiv_pos_as_xyz 
  x,y,z 
_cell_length_a                    34.93522003 
_cell_length_b                    34.9804115335015 
_cell_length_c                    29.688221657453152 
_cell_angle_alpha                 90.00710183202447 
_cell_angle_beta                  89.89072943024577 
_cell_angle_gamma                 120.02048948945608 
loop_ 
_atom_site_label 
_atom_site_type_symbol 
_atom_site_fract_x 
_atom_site_fract_y 
_atom_site_fract_z 
_atom_site_charge 
Fe1        Fe  0.58675568  0.66452753  0.42107919     1.65800
Fe2        Fe  0.50028386  0.66412096  0.47494744     1.73200
Fe3        Fe  0.50460941  0.66536926  0.36040946     1.54400
O4          O  0.56396062  0.72088959  0.34317326    -0.80500
O5          O  0.43899187  0.62170097  0.44863316    -0.78800
O6          O  0.61697612  0.72369729  0.38831911    -0.83000
O7          O  0.57943951  0.63060447  0.36169166    -0.77900
O8          O  0.48291418  0.70720422  0.38263972    -0.79700
O9          O  0.50324206  0.60914142  0.49552895    -0.82400
C10         C  0.55273215  0.61622112  0.32907304     0.98300
C11         C  0.60305332  0.74080280  0.35948084     1.05800
O12         O  0.53061555  0.66471407  0.41886163    -1.11400
O13         O  0.55594957  0.70575268  0.51266155    -0.73800
O14         O  0.60878300  0.69782544  0.48112825    -0.77300
O15         O  0.52088037  0.62360003  0.32650623    -0.78000
C16         C  0.59490227  0.71198387  0.51261564     0.97300
O17         O  0.55564839  0.60577734  0.45414969    -0.76000
O18         O  0.49380736  0.71813972  0.45634007    -0.81200
C19         C  0.42144857  0.60186630  0.41216699     0.99900
C20         C  0.48223643  0.72649281  0.41854437     1.05800
O21         O  0.44339414  0.61076561  0.37558785    -0.76800
C22         C  0.52354581  0.58940897  0.48191381     1.04100
Fe23       Fe  0.65766339  0.59329142  0.08599349     1.65800
Fe24       Fe  0.65786306  0.51083118  0.02503963     1.73200
Fe25       Fe  0.66014845  0.50818236  0.13921941     1.54400
O26         O  0.71616112  0.56569259  0.15809922    -0.80500
O27         O  0.61707465  0.44804717  0.04818582    -0.78800
O28         O  0.71601879  0.62120045  0.12007342    -0.83000
O29         O  0.62225200  0.58043815  0.14525393    -0.77900
O30         O  0.70080638  0.48752116  0.11178086    -0.79700
O31         O  0.60156918  0.51356181  0.00820100    -0.82400
C32         C  0.61096496  0.55369083  0.17781786     0.98300
C33         C  0.73448227  0.60597759  0.14561739     1.05800
O34         O  0.65854444  0.53759213  0.08345062    -1.11400
O35         O  0.69859344  0.56859933  0.99096805    -0.73800
O36         O  0.69319327  0.62066000  0.02735639    -0.77300
O37         O  0.62047814  0.52326828  0.17870707    -0.78000
C38         C  0.70678940  0.60797923  0.99424476     0.97300
O39         O  0.59908586  0.56467927  0.05198957    -0.76000
O40         O  0.71315160  0.50477789  0.03932013    -0.81200
C41         C  0.59713619  0.42865085  0.08401913     0.99900
C42         C  0.72110535  0.49034198  0.07544011     1.05800
O43         O  0.60495854  0.44877677  0.12158398    -0.76800
C44         C  0.58184190  0.53331894  0.02357734     1.04100
Fe45       Fe  0.73241310  0.73899512  0.75394551     1.65800
Fe46       Fe  0.81841367  0.82532024  0.80778541     1.73200
Fe47       Fe  0.81506704  0.82238543  0.69386863     1.54400
O48         O  0.81369310  0.76493284  0.67614614    -0.80500
O49         O  0.83988335  0.88725644  0.78104289    -0.78800
O50         O  0.76092972  0.70997515  0.71784391    -0.83000
O51         O  0.70448534  0.74774713  0.69653511    -0.77900
O52         O  0.87876616  0.84581775  0.71717420    -0.79700
O53         O  0.76151433  0.82435184  0.82754024    -0.82400
C54         C  0.71732829  0.77292966  0.66265401     0.98300
C55         C  0.79302365  0.72507354  0.68999143     1.05800
O56         O  0.78836445  0.79526436  0.75189250    -1.11400
O57         O  0.80244936  0.76982068  0.84637416    -0.73800
O58         O  0.74542318  0.71541530  0.81180862    -0.77300
O59         O  0.75699324  0.80381864  0.65888901    -0.78000
C60         C  0.77182374  0.72997436  0.84459120     0.97300
O61         O  0.70488578  0.76887574  0.79007523    -0.76000
O62         O  0.87722660  0.82861488  0.78939412    -0.81200
C63         C  0.83474320  0.90422928  0.74544584     0.99900
C64         C  0.89790531  0.84312357  0.75235836     1.05800
O65         O  0.81857969  0.88170719  0.70978930    -0.76800
C66         C  0.72098168  0.80241472  0.81594532     1.04100
Fe67       Fe  0.32503915  0.40716982  0.91499847     1.65800
Fe68       Fe  0.32356981  0.49110858  0.85867082     1.73200
Fe69       Fe  0.32327167  0.48989005  0.97363514     1.54400
O70         O  0.27942811  0.43213451  0.00679662    -0.80500
O71         O  0.37622523  0.55257427  0.87735675    -0.78800
O72         O  0.29094659  0.38176231  0.97489935    -0.83000
O73         O  0.38373275  0.43741467  0.94803188    -0.77900
O74         O  0.27000585  0.49850488  0.95598641    -0.79700
O75         O  0.36762261  0.47879946  0.82358651    -0.82400
C76         C  0.39898149  0.46700322  0.97835520     0.98300
C77         C  0.27450850  0.39377722  0.00602810     1.05800
O78         O  0.32392129  0.46277961  0.91575436    -1.11400
O79         O  0.26999822  0.43171620  0.83769592    -0.73800
O80         O  0.26643980  0.37786558  0.88179531    -0.77300
O81         O  0.37776878  0.48507584  0.99424951    -0.78000
C82         C  0.25012728  0.39198879  0.85235222     0.97300
O83         O  0.35930905  0.41789859  0.85494974    -0.76000
O84         O  0.27915718  0.50862242  0.88208822    -0.81200
C85         C  0.38602691  0.57214346  0.91538674     0.99900
C86         C  0.26027018  0.50908061  0.91834939     1.05800
O87         O  0.36714205  0.55235275  0.95147104    -0.76800
C88         C  0.37411741  0.44634605  0.82377202     1.04100
Fe89       Fe  0.39517139  0.33189600  0.58272647     1.65800
Fe90       Fe  0.47900769  0.33184593  0.64170836     1.73200
Fe91       Fe  0.48142883  0.33317493  0.52722559     1.54400
O92         O  0.42532999  0.29198359  0.49022084    -0.80500
O93         O  0.54048264  0.38587367  0.62546021    -0.78800
O94         O  0.37136822  0.29699132  0.52317330    -0.83000
O95         O  0.42496835  0.39016406  0.54900482    -0.77900
O96         O  0.48711248  0.27858355  0.54479298    -0.79700
O97         O  0.46382685  0.37442446  0.67607576    -0.82400
C98         C  0.45759686  0.40753956  0.52199511     0.98300
C99         C  0.38578001  0.28393367  0.49106357     1.05800
O100        O  0.45178655  0.33229644  0.58387239    -1.11400
O101        O  0.42003094  0.27677828  0.66024527    -0.73800
O102        O  0.36588999  0.27366423  0.61641994    -0.77300
O103        O  0.47856621  0.38855479  0.50812515    -0.78000
C104        C  0.38069342  0.25705246  0.64470537     0.97300
O105        O  0.40448670  0.36683565  0.64186716    -0.76000
O106        O  0.49902037  0.28895930  0.61848134    -0.81200
C107        C  0.56197127  0.39464105  0.58856194     0.99900
C108        C  0.49838911  0.26937801  0.58227414     1.05800
O109        O  0.54370099  0.37512077  0.55219544    -0.76800
C110        C  0.43192296  0.38183757  0.67391112     1.04100
Fe111      Fe  0.25432032  0.26064861  0.24675744     1.65800
Fe112      Fe  0.16929258  0.17540717  0.19033465     1.73200
Fe113      Fe  0.17032335  0.17681621  0.30510306     1.54400
O114        O  0.22751075  0.19176996  0.33986414    -0.80500
O115        O  0.10830390  0.16827588  0.20850171    -0.78800
O116        O  0.27994038  0.25094608  0.30587389    -0.83000
O117        O  0.22496667  0.28966332  0.28127674    -0.77900
O118        O  0.16358550  0.11626199  0.28805480    -0.79700
O119        O  0.18338802  0.23220444  0.15479919    -0.82400
C120        C  0.19355610  0.27479698  0.30986904     0.98300
C121        C  0.26676948  0.22370415  0.33819570     1.05800
O122        O  0.19805567  0.20431724  0.24734990    -1.11400
O123        O  0.22796715  0.17953518  0.16969742    -0.73800
O124        O  0.28303869  0.23122083  0.21196312    -0.77300
O125        O  0.17375387  0.23519608  0.32460857    -0.78000
C126        C  0.26802700  0.19999140  0.18329378     0.97300
O127        O  0.24317443  0.28486115  0.18767870    -0.76000
O128        O  0.14988703  0.11292821  0.21458790    -0.81200
C129        C  0.08821261  0.15694709  0.24625805     0.99900
C130        C  0.15095937  0.09484753  0.25125070     1.05800
O131        O  0.10771466  0.15672190  0.28206781    -0.76800
C132        C  0.21530608  0.27152982  0.15600762     1.04100
Fe133      Fe  0.39947899  0.07424983  0.07648414     1.65800
Fe134      Fe  0.48572833  0.15784672  0.02002664     1.73200
Fe135      Fe  0.48380890  0.15804808  0.13451344     1.54400
O136        O  0.42587201  0.15711587  0.15205901    -0.80500
O137        O  0.54787648  0.17840006  0.04583828    -0.78800
O138        O  0.37096001  0.10381130  0.11111055    -0.83000
O139        O  0.40927221  0.04818420  0.13495126    -0.77900
O140        O  0.50645068  0.22049742  0.10963411    -0.79700
O141        O  0.48307315  0.09977029  0.00152277    -0.82400
C142        C  0.43530821  0.06135114  0.16818349     0.98300
C143        C  0.38596071  0.13641127  0.13804308     1.05800
O144        O  0.45620894  0.12986490  0.07701301    -1.11400
O145        O  0.42956125  0.14258030  0.98269944    -0.73800
O146        O  0.37513823  0.08597243  0.01792036    -0.77300
O147        O  0.46628199  0.10099530  0.17107407    -0.78000
C148        C  0.38945503  0.11243060  0.98502043     0.97300
O149        O  0.42853812  0.04531689  0.04187448    -0.76000
O150        O  0.49105298  0.21781210  0.03673723    -0.83000
C151        C  0.56577962  0.17591412  0.08202924     0.99900
C152        C  0.50449239  0.23885791  0.07363887     1.05800
O153        O  0.54397217  0.16229563  0.11867633    -0.76800
C154        C  0.46151744  0.05990446  0.01531639     1.04100
Fe155      Fe  0.25461726  0.00205294  0.74548104     1.65800
Fe156      Fe  0.16916379  0.99969518  0.68781737     1.73200
Fe157      Fe  0.17015855  0.00295743  0.80222920     1.54400
O158        O  0.17366522  0.94865038  0.82360455    -0.80500
O159        O  0.14746570  0.04146244  0.71053019    -0.78800
O160        O  0.22562421  0.94485795  0.78193748    -0.83000
O161        O  0.28012225  0.03905393  0.80341269    -0.77900
O162        O  0.10709867  0.96001124  0.77892442    -0.79700
O163        O  0.22651351  0.05487383  0.66730711    -0.82400
C164        C  0.26687486  0.05331803  0.83543383     0.98300
C165        C  0.19410941  0.92891831  0.81048954     1.05800
O166        O  0.19812596  0.00155583  0.74518421    -1.11400
O167        O  0.18539707  0.95821478  0.65296397    -0.73800
O168        O  0.24444226  0.96556649  0.68747120    -0.77300
O169        O  0.22740885  0.04554136  0.83722987    -0.78000
C170        C  0.21757766  0.95125725  0.65496135     0.97300
O171        O  0.28243255  0.05909287  0.70907758    -0.76000
O172        O  0.10979159  0.94517128  0.70653560    -0.81200
C173        C  0.14999047  0.06313411  0.74575157     0.99900
C174        C  0.08868364  0.93850293  0.74337061     1.05800
O175        O  0.16415958  0.05677741  0.78287608    -0.76800
C176        C  0.26647009  0.07485170  0.68095347     1.04100
Fe177      Fe  0.32507477  0.92759121  0.40948366     1.65800
Fe178      Fe  0.32632336  0.84383689  0.46702415     1.73200
Fe179      Fe  0.32395584  0.84180973  0.35283614     1.54400
O180        O  0.26782714  0.84412280  0.33503962    -0.80500
O181        O  0.36675304  0.82175415  0.44210350    -0.78800
O182        O  0.26670017  0.89808687  0.37556473    -0.83000
O183        O  0.36034131  0.95197648  0.35029395    -0.77900
O184        O  0.28270755  0.77966652  0.37851278    -0.79700
O185        O  0.38245605  0.90205018  0.48417335    -0.82400
C186        C  0.37319454  0.93804199  0.31762438     0.98300
C187        C  0.24901993  0.86526082  0.34893307     1.05800
O188        O  0.32514349  0.87126962  0.40974870    -1.11400
O189        O  0.28675395  0.86077396  0.50405712    -0.73800
O190        O  0.28981709  0.91780508  0.46885210    -0.77300
O191        O  0.36455997  0.89834568  0.31570020    -0.78000
C192        C  0.27806894  0.89174019  0.50211527     0.97300
O193        O  0.38359194  0.95681147  0.44331164    -0.76000
O194        O  0.27089678  0.78351354  0.45151091    -0.81200
C195        C  0.38670391  0.82254260  0.40614855     0.99900
C196        C  0.26277029  0.76175361  0.41493398     1.05800
O197        O  0.37902586  0.83579837  0.36900313    -0.76800
C198        C  0.40130720  0.94193976  0.47026384     1.04100
Fe199      Fe  0.59086502  0.92734069  0.92452434     1.65800
Fe200      Fe  0.50307845  0.84424739  0.98043694     1.73200
Fe201      Fe  0.50675266  0.84411627  0.86585234     1.54400
O202        O  0.52262104  0.90172932  0.83133643    -0.80500
O203        O  0.49555183  0.78299832  0.96415330    -0.78800
O204        O  0.58276195  0.95293590  0.86486455    -0.83000
O205        O  0.61966273  0.89742851  0.89160549    -0.77900
O206        O  0.44550012  0.83731759  0.88098495    -0.79700
O207        O  0.55860206  0.85805743  0.01791371    -0.82400
C208        C  0.60487929  0.86670147  0.86254825     0.98300
C209        C  0.55521516  0.94063689  0.83295974     1.05800
O210        O  0.53364880  0.87186446  0.92365377    -1.11400
O211        O  0.50761861  0.90343502  0.99855064    -0.73800
O212        O  0.56179520  0.95714094  0.95716309    -0.77300
O213        O  0.56542991  0.84739296  0.84740969    -0.78000
C214        C  0.52907145  0.94306569  0.98392416     0.97300
O215        O  0.61341446  0.91580648  0.98428052    -0.76000
O216        O  0.44123546  0.82506732  0.95463756    -0.81200
C217        C  0.48502852  0.76251766  0.92667252     0.99900
C218        C  0.42349433  0.82544346  0.91754715     1.05800
O219        O  0.48612859  0.78160724  0.88997684    -0.76800
C220        C  0.59849288  0.88876137  0.01664654     1.04100
Fe221      Fe  0.73179806  0.00118435  0.25809871     1.65800
Fe222      Fe  0.81635637  0.99915494  0.31360840     1.73200
Fe223      Fe  0.81568931  0.00196022  0.19898695     1.54400
O224        O  0.75847286  0.95953460  0.16480627    -0.80500
O225        O  0.87716638  0.05344425  0.29636475    -0.78800
O226        O  0.70611799  0.96627068  0.19901619    -0.83000
O227        O  0.76092623  0.06006432  0.22418240    -0.77900
O228        O  0.82272095  0.94806211  0.21441548    -0.79700
O229        O  0.80156110  0.04046750  0.35091032    -0.82400
C230        C  0.79179907  0.07655566  0.19498227     0.98300
C231        C  0.71911841  0.95181061  0.16693471     1.05800
O232        O  0.78796986  0.00090763  0.25698211    -1.11400
O233        O  0.75793294  0.94402979  0.33292065    -0.73800
O234        O  0.70312013  0.94230414  0.29184266    -0.77300
O235        O  0.81136695  0.05651839  0.18029793    -0.78000
C236        C  0.71802678  0.92474635  0.31904435     0.97300
O237        O  0.74304380  0.03597530  0.31742187    -0.76000
O238        O  0.83593029  0.95666824  0.28790242    -0.81200
C239        C  0.89750609  0.06324082  0.25870729     0.99900
C240        C  0.83457974  0.93795610  0.25085217     1.05800
O241        O  0.87832343  0.04463405  0.22230948    -0.76800
C242        C  0.77022425  0.04878643  0.34964012     1.04100
Fe243      Fe  0.65243360  0.06934620  0.58796077     1.65800
Fe244      Fe  0.65616344  0.15532128  0.53050705     1.73200
Fe245      Fe  0.65842156  0.15704091  0.64511484     1.54400
O246        O  0.61906215  0.10127403  0.68350578    -0.80500
O247        O  0.71027001  0.21566033  0.54729551    -0.78800
O248        O  0.61663335  0.04526821  0.64671811    -0.83000
O249        O  0.71028495  0.09626103  0.62261075    -0.77900
O250        O  0.60338862  0.16295259  0.62920631    -0.79700
O251        O  0.69883662  0.14011821  0.49629199    -0.82400
C252        C  0.73029130  0.12980889  0.64804448     0.98300
C253        C  0.60802679  0.06094190  0.68105091     1.05800
O254        O  0.65548731  0.12705741  0.58796256    -1.11400
O255        O  0.60142885  0.09776912  0.50929133    -0.73800
O256        O  0.59470851  0.04236424  0.55306212    -0.77300
O257        O  0.71404922  0.15350222  0.66133187    -0.78000
C258        C  0.58038771  0.05793777  0.52306870     0.97300
O259        O  0.68806510  0.07901674  0.52929728    -0.76000
O260        O  0.61341867  0.17495292  0.55525731    -0.81200
C261        C  0.71874053  0.23750899  0.58367547     0.99900
C262        C  0.59401333  0.17431136  0.59174756     1.05800
O263        O  0.69962447  0.21972504  0.62037596    -0.76800
C264        C  0.70467452  0.10720916  0.49800433     1.04100
Fe265      Fe  0.06448354  0.40575005  0.41098101     1.65800
Fe266      Fe  0.14880582  0.48954814  0.46889994     1.73200
Fe267      Fe  0.15124443  0.48929293  0.35444992     1.54400
O268        O  0.14796735  0.43068569  0.33624887    -0.80500
O269        O  0.17005965  0.55213572  0.44456957    -0.78800
O270        O  0.09374328  0.37613199  0.37700621    -0.83000
O271        O  0.04057646  0.41699827  0.35206553    -0.77900
O272        O  0.21344215  0.50925601  0.37940528    -0.79700
O273        O  0.09054784  0.48695613  0.48798193    -0.82400
C274        C  0.05518193  0.44374151  0.31947056     0.98300
C275        C  0.12672572  0.39086500  0.35033805     1.05800
O276        O  0.12132837  0.46149306  0.41142168    -1.11400
O277        O  0.13255742  0.43250014  0.50433399    -0.73800
O278        O  0.07372682  0.38023335  0.46977450    -0.77300
O279        O  0.09509638  0.47435541  0.31761336    -0.78000
C280        C  0.10059417  0.39333977  0.50221714     0.97300
O281        O  0.03572560  0.43560613  0.44544984    -0.76000
O282        O  0.20906818  0.49473493  0.45262709    -0.81200
C283        C  0.16961288  0.57094682  0.40824314     0.99900
C284        C  0.23092487  0.50719475  0.41599676     1.05800
O285        O  0.15770816  0.55011031  0.37099492    -0.76800
C286        C  0.05061407  0.46687768  0.47411398     1.04100
Fe287      Fe  0.92177097  0.33264451  0.07910271     1.65800
Fe288      Fe  0.83891602  0.33525587  0.02153238     1.73200
Fe289      Fe  0.83763629  0.33352647  0.13616384     1.54400
O290        O  0.84204390  0.27919149  0.15678634    -0.80500
O291        O  0.81862260  0.37767316  0.04494024    -0.78800
O292        O  0.89070971  0.27358866  0.11184647    -0.83000
O293        O  0.94579713  0.36604112  0.13895763    -0.77900
O294        O  0.77533361  0.28988936  0.11225676    -0.79700
O295        O  0.89816301  0.39035088  0.00348905    -0.82400
C296        C  0.93351825  0.38239006  0.16981922     0.98300
C297        C  0.86027819  0.25801524  0.14149239     1.05800
O298        O  0.86606261  0.33377877  0.07889792    -1.11400
O299        O  0.85372860  0.29335367  0.98589932    -0.73800
O300        O  0.91254675  0.29891197  0.01942004    -0.77300
O301        O  0.89490913  0.37702607  0.17046119    -0.78000
C302        C  0.88532513  0.28552878  0.98728314     0.97300
O303        O  0.95185283  0.39185393  0.04638802    -0.76000
O304        O  0.77779540  0.28123871  0.03824553    -0.81200
C305        C  0.81827280  0.39622407  0.08143028     0.99900
C306        C  0.75683980  0.27122096  0.07557325     1.05800
O307        O  0.82970318  0.38681995  0.11866375    -0.76800
C308        C  0.93764995  0.40970626  0.01876712     1.04100
Fe309      Fe  0.99130041  0.26027467  0.74404130     1.65800
Fe310      Fe  0.99312454  0.17672405  0.80055741     1.73200
Fe311      Fe  0.98873322  0.17473261  0.68618645     1.54400
O312        O  0.93207730  0.17659288  0.67028995    -0.80500
O313        O  0.03449439  0.15623511  0.77421747    -0.78800
O314        O  0.93216220  0.23054560  0.71175965    -0.83000
O315        O  0.02489895  0.28456409  0.68458242    -0.77900
O316        O  0.94837497  0.11240119  0.71172388    -0.79700
O317        O  0.04899346  0.23524986  0.81822590    -0.82400
C318        C  0.03715245  0.27083645  0.65139387     0.98300
C319        C  0.91347476  0.19741342  0.68561842     1.05800
O320        O  0.99113851  0.20404974  0.74355718    -1.11400
O321        O  0.95235935  0.19221112  0.83797158    -0.73800
O322        O  0.95769801  0.25053085  0.80374001    -0.77300
O323        O  0.02835777  0.23117400  0.64888397    -0.78000
C324        C  0.94447594  0.22376170  0.83630840     0.97300
O325        O  0.05046326  0.28943639  0.77648010    -0.76000
O326        O  0.93816010  0.11627054  0.78503712    -0.81200
C327        C  0.05373007  0.15753996  0.73748134     0.99900
C328        C  0.92918612  0.09454686  0.74842241     1.05800
O329        O  0.04435369  0.16975470  0.70069792    -0.76800
C330        C  0.06824800  0.27499263  0.80382294     1.04100
Fe331      Fe  0.06562070  0.67144878  0.91773499     1.65800
Fe332      Fe  0.14876853  0.66734882  0.97342681     1.73200
Fe333      Fe  0.14961033  0.67152579  0.85885026     1.54400
O334        O  0.09199344  0.63130491  0.82319218    -0.80500
O335        O  0.21058168  0.72031300  0.95702004    -0.78800
O336        O  0.03990873  0.63798926  0.85816561    -0.83000
O337        O  0.09607443  0.73056206  0.88510844    -0.77900
O338        O  0.15483688  0.61607817  0.87384906    -0.79700
O339        O  0.13607682  0.71041120  0.00999230    -0.82400
C340        C  0.12783598  0.74758207  0.85701224     0.98300
C341        C  0.05278352  0.62428466  0.82537445     1.05800
O342        O  0.12132525  0.67012483  0.91663604    -1.11400
O343        O  0.08930219  0.61319682  0.99237852    -0.73800
O344        O  0.03548917  0.61230394  0.95042356    -0.77300
O345        O  0.14750334  0.72780655  0.84169157    -0.78000
C346        C  0.04962300  0.59428071  0.97782967     0.97300
O347        O  0.07706795  0.70538837  0.97736862    -0.76000
O348        O  0.16642557  0.62360482  0.94775639    -0.81200
C349        C  0.23168156  0.73006744  0.91986573     0.99900
C350        C  0.16559465  0.60520646  0.91067560     1.05800
O351        O  0.21274521  0.71237482  0.88302667    -0.76800
C352        C  0.10495739  0.71899836  0.00890800     1.04100
Fe353      Fe  0.99315712  0.73921785  0.24793477     1.65800
Fe354      Fe  0.99007009  0.82235066  0.19104793     1.73200
Fe355      Fe  0.99122905  0.82225912  0.30586284     1.54400
O356        O  0.94912841  0.76456431  0.34056849    -0.80500
O357        O  0.04291548  0.88382186  0.20814654    -0.78800
O358        O  0.95837892  0.71363576  0.30684965    -0.83000
O359        O  0.05123286  0.76924328  0.28205199    -0.77900
O360        O  0.93681150  0.82840877  0.28910902    -0.79700
O361        O  0.03381460  0.80973659  0.15575420    -0.82400
C362        C  0.06696351  0.80026205  0.31082431     0.98300
C363        C  0.94294841  0.72571708  0.33877824     1.05800
O364        O  0.99151574  0.79462314  0.24827550    -1.11400
O365        O  0.93643768  0.76300831  0.17126176    -0.73800
O366        O  0.93490044  0.70928803  0.21405731    -0.77300
O367        O  0.04670167  0.81964906  0.32546572    -0.78000
C368        C  0.91752413  0.72332951  0.18578794     0.97300
O369        O  0.02861426  0.75096639  0.18904599    -0.76000
O370        O  0.94594302  0.84030693  0.21537480    -0.81200
C371        C  0.05229247  0.90415263  0.24564470     0.99900
C372        C  0.92705676  0.83980073  0.25208263     1.05800
O373        O  0.03346673  0.88487246  0.28202470    -0.76800
C374        C  0.04261476  0.77882520  0.15739539     1.04100
Fe375      Fe  0.91953169  0.59483087  0.58173618     1.65800
Fe376      Fe  0.83547275  0.50927471  0.52586578     1.73200
Fe377      Fe  0.83498885  0.51157475  0.64049026     1.54400
O378        O  0.89209037  0.52659879  0.67582397    -0.80500
O379        O  0.77415037  0.50243506  0.54255780    -0.78800
O380        O  0.94332044  0.58724793  0.64267863    -0.83000
O381        O  0.88911113  0.62423521  0.61280681    -0.77900
O382        O  0.82667531  0.44966287  0.62492243    -0.79700
O383        O  0.85014054  0.56531023  0.48904089    -0.82400
C384        C  0.85857293  0.60993216  0.64232038     0.98300
C385        C  0.93058728  0.55998898  0.67487376     1.05800
O386        O  0.86332168  0.53854517  0.58271222    -1.11400
O387        O  0.89459175  0.51264383  0.50739445    -0.73800
O388        O  0.94876094  0.56393563  0.55074439    -0.77300
O389        O  0.83971601  0.57088104  0.65859411    -0.78000
C390        C  0.93413995  0.53220315  0.52267386     0.97300
O391        O  0.91066143  0.61797396  0.52079293    -0.76000
O392        O  0.81539282  0.44768251  0.55126003    -0.81200
C393        C  0.75347074  0.49148153  0.58008088     0.99900
C394        C  0.81456647  0.42866655  0.58778823     1.05800
O395        O  0.77259355  0.49201919  0.61651763    -0.76800
C396        C  0.88268916  0.60421345  0.48928876     1.04100
C397        C  0.90217071  0.64796455  0.36956120     0.24700
C398        C  0.91942974  0.69368494  0.37622701    -0.23400
C399        C  0.91890848  0.70859444  0.42027925     0.19600
C400        C  0.90504715  0.67919584  0.45694932     0.24700
C401        C  0.89019573  0.63404966  0.45037468    -0.23300
C402        C  0.88750227  0.61856405  0.40611918     0.19600
F403        F  0.87380061  0.57532559  0.39847725    -0.13300
F404        F  0.90095535  0.63170279  0.32771379    -0.15600
F405        F  0.90721353  0.69509516  0.49915528    -0.15600
F406        F  0.93442393  0.75209274  0.42843846    -0.13300
C407        C  0.07774707  0.76836292  0.03912905     0.24700
C408        C  0.09858278  0.74330460  0.04672156    -0.23400
C409        C  0.10723021  0.73655868  0.09143747     0.19600
C410        C  0.09167365  0.75086973  0.12761895     0.24700
C411        C  0.06759972  0.77274732  0.11996426    -0.23300
C412        C  0.06267861  0.78315436  0.07529757     0.19600
F413        F  0.04012851  0.80455526  0.06628156    -0.13300
F414        F  0.07016703  0.77691915  0.99646682    -0.15600
F415        F  0.09852859  0.74157522  0.17025132    -0.15600
F416        F  0.12755194  0.71294643  0.10031933    -0.13300
C417        C  0.97514869  0.57879136  0.79462412     0.24700
C418        C  0.02131355  0.60150279  0.78742572    -0.23400
C419        C  0.03694619  0.60632985  0.74279959     0.19600
C420        C  0.00740790  0.59093907  0.70637177     0.24700
C421        C  0.96137872  0.56950905  0.71350041    -0.23300
C422        C  0.94559462  0.56264842  0.75816416     0.19600
F423        F  0.90152999  0.54307719  0.76654021    -0.13300
F424        F  0.95845224  0.57326768  0.83699164    -0.15600
F425        F  0.02398558  0.59819992  0.66385153    -0.15600
F426        F  0.08101087  0.62865931  0.73404854    -0.13300
C427        C  0.88655967  0.27231339  0.90435710     0.24700
C428        C  0.89276986  0.26261231  0.94882018    -0.23400
C429        C  0.91110522  0.23519465  0.95563158     0.19600
C430        C  0.92481968  0.21958636  0.91889338     0.24700
C431        C  0.92148756  0.23192748  0.87447635    -0.23300
C432        C  0.90088997  0.25738747  0.86772390     0.19600
F433        F  0.89611766  0.26947333  0.82557450    -0.13300
F434        F  0.86975281  0.29925110  0.89629647    -0.15600
F435        F  0.94407435  0.19486486  0.92714963    -0.15600
F436        F  0.91701672  0.22455817  0.99803399    -0.13300
C437        C  0.00637793  0.48233425  0.03151965     0.24700
C438        C  0.96745597  0.45635665  0.00654464    -0.23400
C439        C  0.95489870  0.47681749  0.97357837     0.19600
C440        C  0.98046594  0.52197213  0.96577820     0.24700
C441        C  0.01949518  0.54788440  0.99058200    -0.23300
C442        C  0.03190963  0.52750321  0.02375569     0.19600
F443        F  0.06887814  0.55112160  0.04894152    -0.13300
F444        F  0.01960441  0.46452068  0.06440058    -0.15600
F445        F  0.96726635  0.53981610  0.93289984    -0.15600
F446        F  0.91781923  0.45329062  0.94853175    -0.13300
C447        C  0.94655876  0.47163786  0.49563601     0.24700
C448        C  0.96399940  0.51582324  0.50924234    -0.23400
C449        C  0.01006321  0.54278176  0.51410969     0.19600
C450        C  0.03809710  0.52626402  0.50456651     0.24700
C451        C  0.02071164  0.48239944  0.48986396    -0.23300
C452        C  0.97461419  0.45510558  0.48611012     0.19600
F453        F  0.95648420  0.41215977  0.47358449    -0.13300
F454        F  0.90222665  0.44382400  0.49281991    -0.15600
F455        F  0.08239651  0.55392393  0.50824246    -0.15600
F456        F  0.02828137  0.58549671  0.52751135    -0.13300
C457        C  0.09841856  0.37785010  0.58488362     0.24700
C458        C  0.09204570  0.36238863  0.54023515    -0.23400
C459        C  0.07186796  0.31657923  0.53275630     0.19600
C460        C  0.05654387  0.28680573  0.56901096     0.24700
C461        C  0.06046122  0.30215512  0.61361559    -0.23300
C462        C  0.08261233  0.34815672  0.62107746     0.19600
F463        F  0.08754554  0.36458832  0.66345856    -0.13300
F464        F  0.11687876  0.42168965  0.59353087    -0.15600
F465        F  0.03513365  0.24285587  0.56008769    -0.15600
F466        F  0.06560592  0.30046676  0.49013642    -0.13300
C467        C  0.04062452  0.44169992  0.23646136     0.24700
C468        C  0.02494160  0.43655318  0.28102033    -0.23400
C469        C  0.97922090  0.41874737  0.28809397     0.19600
C470        C  0.94966934  0.40422773  0.25163897     0.24700
C471        C  0.96505944  0.40625624  0.20728378    -0.23300
C472        C  0.01107647  0.42646305  0.20011324     0.19600
F473        F  0.02753703  0.42996768  0.15789033    -0.13300
F474        F  0.08436012  0.45824808  0.22814646    -0.15600
F475        F  0.90569970  0.38523706  0.26020480    -0.15600
F476        F  0.96289065  0.41392101  0.33055534    -0.13300
C477        C  0.84770005  0.15517767  0.63659167     0.24700
C478        C  0.86675916  0.18049770  0.67537315    -0.23400
C479        C  0.83982751  0.18637352  0.70682690     0.19600
C480        C  0.79488688  0.16830124  0.69891985     0.24700
C481        C  0.77607986  0.14390689  0.65965493    -0.23300
C482        C  0.80271642  0.13702241  0.62875536     0.19600
F483        F  0.78574306  0.11440782  0.58984447    -0.13300
F484        F  0.87267261  0.14874422  0.60572278    -0.15600
F485        F  0.76972047  0.17435616  0.72987039    -0.15600
F486        F  0.85659702  0.20849141  0.74602317    -0.13300
C487        C  0.77054070  0.30889735  0.62329390     0.24700
C488        C  0.74975840  0.28601102  0.58335866    -0.23400
C489        C  0.75471061  0.31055569  0.54420404     0.19600
C490        C  0.77756304  0.35662489  0.54534157     0.24700
C491        C  0.79631502  0.37984931  0.58590048    -0.23300
C492        C  0.79362397  0.35525124  0.62453001     0.19600
F493        F  0.81205816  0.37582600  0.66397310    -0.13300
F494        F  0.76766439  0.28641258  0.66161375    -0.15600
F495        F  0.77899600  0.37813066  0.50672469    -0.15600
F496        F  0.73467065  0.29009973  0.50519564    -0.13300
C497        C  0.86397513  0.18837999  0.14176545     0.24700
C498        C  0.84371277  0.21220043  0.15687482    -0.23400
C499        C  0.80498762  0.19030415  0.18317780     0.19600
C500        C  0.78720553  0.14590085  0.19425322     0.24700
C501        C  0.80764874  0.12218527  0.17932304    -0.23300
C502        C  0.84611634  0.14402492  0.15263045     0.19600
F503        F  0.86730819  0.12291918  0.13733798    -0.13300
F504        F  0.90124276  0.20769853  0.11615395    -0.15600
F505        F  0.74991918  0.12641622  0.21980925    -0.15600
F506        F  0.78356561  0.21141128  0.19777086    -0.13300
C507        C  0.73118392  0.11539490  0.41725112     0.24700
C508        C  0.72957763  0.09952258  0.46131200    -0.23400
C509        C  0.74768219  0.07187653  0.46869502     0.19600
C510        C  0.76427483  0.05832933  0.43274528     0.24700
C511        C  0.76253844  0.07136613  0.38831579    -0.23300
C512        C  0.74696728  0.10104744  0.38117090     0.19600
F513        F  0.74565783  0.11507190  0.33885890    -0.13300
F514        F  0.71469966  0.14245212  0.40837620    -0.15600
F515        F  0.77873163  0.02949064  0.44105167    -0.15600
F516        F  0.74778571  0.05636442  0.51058919    -0.13300
C517        C  0.85660604  0.88837583  0.29116026     0.24700
C518        C  0.84981083  0.90498249  0.25042279    -0.23400
C519        C  0.86191533  0.89303268  0.20982848     0.19600
C520        C  0.88393759  0.86883784  0.21022631     0.24700
C521        C  0.89487665  0.85617314  0.25131883    -0.23300
C522        C  0.87884638  0.86436025  0.29160327     0.19600
F523        F  0.88653525  0.85118170  0.33192472    -0.13300
F524        F  0.84325636  0.89672949  0.33110714    -0.15600
F525        F  0.89631731  0.85975748  0.17007319    -0.15600
F526        F  0.85497782  0.90696077  0.16956791    -0.13300
C527        C  0.61238208  0.88899695  0.09992521     0.24700
C528        C  0.62845651  0.89573508  0.05536230    -0.23400
C529        C  0.67438143  0.91519775  0.04854775     0.19600
C530        C  0.70368861  0.93054050  0.08509582     0.24700
C531        C  0.68785131  0.92748119  0.12943702    -0.23300
C532        C  0.64173630  0.90504831  0.13649399     0.19600
F533        F  0.62496090  0.89992944  0.17878502    -0.13300
F534        F  0.56832757  0.86983743  0.10810057    -0.15600
F535        F  0.74778673  0.95126645  0.07659092    -0.15600
F536        F  0.69114264  0.92089232  0.00619543    -0.13300
C537        C  0.54514146  0.95702023  0.75218024     0.24700
C538        C  0.56290991  0.97239462  0.79544619    -0.23400
C539        C  0.59154208  0.01821288  0.80121992     0.19600
C540        C  0.60357736  0.04735067  0.76452402     0.24700
C541        C  0.58779563  0.03153487  0.72089676    -0.23300
C542        C  0.55777877  0.98614229  0.71538499     0.19600
F543        F  0.54166549  0.96962832  0.67391957    -0.13300
F544        F  0.51755068  0.91330997  0.74466969    -0.15600
F545        F  0.63349101  0.09068199  0.77120307    -0.15600
F546        F  0.60928288  0.03489942  0.84218615    -0.13300
C547        C  0.35053684  0.79660413  0.87705749     0.24700
C548        C  0.37480588  0.80870542  0.91747155    -0.23400
C549        C  0.35121715  0.79994131  0.95849100     0.19600
C550        C  0.30489850  0.77652501  0.95923564     0.24700
C551        C  0.28057131  0.76135916  0.91899851    -0.23300
C552        C  0.30417441  0.77335528  0.87776730     0.19600
F553        F  0.28262265  0.76116763  0.83772259    -0.13300
F554        F  0.37143709  0.80508801  0.83659962    -0.15600
F555        F  0.28412276  0.76703546  0.99980137    -0.15600
F556        F  0.37283926  0.81259159  0.99846921    -0.13300
C557        C  0.18706262  0.87839155  0.33144277     0.24700
C558        C  0.20291705  0.84885542  0.33678047    -0.23400
C559        C  0.17314842  0.80312407  0.33678960     0.19600
C560        C  0.12821166  0.78715307  0.33071541     0.24700
C561        C  0.11248667  0.81667454  0.32484523    -0.23300
C562        C  0.14207343  0.86239221  0.32555263     0.19600
F563        F  0.12774543  0.89151843  0.31828488    -0.13300
F564        F  0.21522833  0.92270505  0.33122794    -0.15600
F565        F  0.09994214  0.74285203  0.33087486    -0.15600
F566        F  0.18726760  0.77392497  0.34455986    -0.13300
C567        C  0.51886352  0.98293210  0.50509535     0.24700
C568        C  0.53605173  0.02879254  0.50539656    -0.23400
C569        C  0.50888003  0.04614383  0.49330813     0.19600
C570        C  0.46470056  0.01790308  0.48268772     0.24700
C571        C  0.44707558  0.97189183  0.48392957    -0.23300
C572        C  0.47478069  0.95470584  0.49443978     0.19600
F573        F  0.45967009  0.91060208  0.49321848    -0.13300
F574        F  0.54482057  0.96534246  0.51491882    -0.15600
F575        F  0.43905702  0.03567002  0.47211937    -0.15600
F576        F  0.52441526  0.09033854  0.49369526    -0.13300
C577        C  0.19454703  0.64452961  0.37057425     0.24700
C578        C  0.18587204  0.61939986  0.41016905    -0.23400
C579        C  0.19692837  0.64188577  0.45199085     0.19600
C580        C  0.21936444  0.68807797  0.45382606     0.24700
C581        C  0.23115870  0.71321838  0.41402604    -0.23300
C582        C  0.21670655  0.69071637  0.37246560     0.19600
F583        F  0.22549052  0.71335118  0.33307691    -0.13300
F584        F  0.18367848  0.62473418  0.32958108    -0.15600
F585        F  0.23187558  0.70799674  0.49466779    -0.15600
F586        F  0.18783307  0.61942993  0.49152159    -0.13300
C587        C  0.22593128  0.91466648  0.53574704     0.24700
C588        C  0.25639373  0.89985672  0.54149046    -0.23400
C589        C  0.26981881  0.89728235  0.58554494     0.19600
C590        C  0.25525894  0.91155561  0.62261734     0.24700
C591        C  0.22634570  0.92841971  0.61685116    -0.23300
C592        C  0.21064021  0.92823502  0.57296358     0.19600
F593        F  0.18244230  0.94364712  0.56547872    -0.13300
F594        F  0.21161447  0.91691033  0.49387735    -0.15600
F595        F  0.27089484  0.91026235  0.66409603    -0.15600
F596        F  0.29975161  0.88393041  0.59254148    -0.13300
C597        C  0.18943004  0.82098311  0.83343102     0.24700
C598        C  0.14440500  0.79364587  0.84391844    -0.23400
C599        C  0.11667853  0.81197369  0.84649888     0.19600
C600        C  0.13347028  0.85662920  0.83790893     0.24700
C601        C  0.17830381  0.88378239  0.82645187    -0.23300
C602        C  0.20622267  0.86565484  0.82483877     0.19600
F603        F  0.24990595  0.89118296  0.81508403    -0.13300
F604        F  0.21765699  0.80489429  0.83282085    -0.15600
F605        F  0.10523976  0.87269182  0.83891094    -0.15600
F606        F  0.07303296  0.78656559  0.85653034    -0.13300
C607        C  0.09928338  0.12922562  0.69887867     0.24700
C608        C  0.08625388  0.14168440  0.73853333    -0.23400
C609        C  0.10077260  0.13409335  0.78027221     0.19600
C610        C  0.12372293  0.11090416  0.78253020     0.24700
C611        C  0.13332061  0.09494438  0.74313777    -0.23300
C612        C  0.12257420  0.10624955  0.70111894     0.19600
F613        F  0.13302362  0.09364400  0.66187608    -0.13300
F614        F  0.08746140  0.13697965  0.65782555    -0.15600
F615        F  0.13417323  0.10198855  0.82374097    -0.15600
F616        F  0.09125274  0.14750269  0.81954547    -0.13300
C617        C  0.53958144  0.01894968  0.98653389     0.24700
C618        C  0.51294372  0.97341522  0.99506247    -0.23400
C619        C  0.46850801  0.95640157  0.00768348     0.19600
C620        C  0.45103446  0.98420661  0.01150338     0.24700
C621        C  0.47771959  0.02977211  0.00340760    -0.23300
C622        C  0.52212367  0.04681015  0.99049889     0.19600
F623        F  0.54935573  0.09066930  0.98311744    -0.13300
F624        F  0.58270393  0.03679005  0.97437944    -0.15600
F625        F  0.40779927  0.96625896  0.02319864    -0.15600
F626        F  0.44120486  0.91254139  0.01490122    -0.13300
C627        C  0.37389341  0.11592881  0.90233599     0.24700
C628        C  0.35841612  0.10566663  0.94709676    -0.23400
C629        C  0.31233901  0.08389623  0.95450432     0.19600
C630        C  0.28261385  0.07003536  0.91819835     0.24700
C631        C  0.29806864  0.07691512  0.87338613    -0.23300
C632        C  0.34412037  0.10137878  0.86599169     0.19600
F633        F  0.36048388  0.10995880  0.82336983    -0.13300
F634        F  0.41792601  0.13736277  0.89339704    -0.15600
F635        F  0.23858835  0.04684236  0.92707751    -0.15600
F636        F  0.29582664  0.07450566  0.99705379    -0.13300
C637        C  0.40343200  0.98363920  0.19834536     0.24700
C638        C  0.42713518  0.02963781  0.20588071    -0.23400
C639        C  0.43831091  0.04468885  0.25063406     0.19600
C640        C  0.42291718  0.01477663  0.28687881     0.24700
C641        C  0.39666778  0.96896545  0.27940638    -0.23300
C642        C  0.38866525  0.95372938  0.23457566     0.19600
F643        F  0.36375037  0.90990463  0.22567791    -0.13300
F644        F  0.39320514  0.96745725  0.15578239    -0.15600
F645        F  0.43264002  0.03082917  0.32952153    -0.15600
F646        F  0.46172387  0.08858128  0.25972827    -0.13300
C647        C  0.63938620  0.20161000  0.12038979     0.24700
C648        C  0.61432512  0.19201741  0.08064801    -0.23400
C649        C  0.63702605  0.20246065  0.03892345     0.19600
C650        C  0.68326657  0.22557501  0.03712878     0.24700
C651        C  0.70836644  0.23872889  0.07692893    -0.23300
C652        C  0.68573389  0.22441938  0.11856996     0.19600
F653        F  0.70831603  0.23396708  0.15801253    -0.13300
F654        F  0.61934471  0.19119244  0.16135029    -0.15600
F655        F  0.70320751  0.23718151  0.99615893    -0.15600
F656        F  0.61463806  0.19204930  0.99934046    -0.13300
C657        C  0.37270730  0.19767866  0.15957340     0.24700
C658        C  0.35592386  0.15248216  0.15108860    -0.23400
C659        C  0.30990610  0.12381320  0.14995609     0.19600
C660        C  0.28124716  0.13981078  0.15809551     0.24700
C661        C  0.29802558  0.18476862  0.16769719    -0.23300
C662        C  0.34399047  0.21366166  0.16780032     0.19600
F663        F  0.36118594  0.25751394  0.17555212    -0.13300
F664        F  0.41684191  0.22677507  0.15841797    -0.15600
F665        F  0.23709866  0.11078553  0.15850378    -0.15600
F666        F  0.29248628  0.08002497  0.14163180    -0.13300
C667        C  0.13149562  0.28689305  0.33060880     0.24700
C668        C  0.17710538  0.30416776  0.32381765    -0.23400
C669        C  0.20570160  0.35003776  0.32467845     0.19600
C670        C  0.18898320  0.37825717  0.33173471     0.24700
C671        C  0.14329137  0.36108297  0.33800684    -0.23300
C672        C  0.11474363  0.31512592  0.33766134     0.19600
F673        F  0.07048524  0.29747570  0.34339155    -0.13300
F674        F  0.10276019  0.24275610  0.32840019    -0.15600
F675        F  0.21784119  0.42232837  0.33406780    -0.15600
F676        F  0.24997348  0.36759476  0.31908276    -0.13300
C677        C  0.11713509  0.02152127  0.29065627     0.24700
C678        C  0.13380204  0.04633903  0.25093390    -0.23400
C679        C  0.12869859  0.02356924  0.21006805     0.19600
C680        C  0.10456294  0.97730793  0.20852713     0.24700
C681        C  0.08459917  0.95257625  0.24775500    -0.23300
C682        C  0.09296092  0.97542375  0.28916193     0.19600
F683        F  0.07597419  0.95350801  0.32847004    -0.13300
F684        F  0.12139504  0.04172349  0.33089279    -0.15600
F685        F  0.09940984  0.95703189  0.16817110    -0.15600
F686        F  0.14572485  0.04601613  0.17104059    -0.13300
C687        C  0.01837379  0.13010734  0.29210307     0.24700
C688        C  0.03980740  0.14103169  0.24961867    -0.23400
C689        C  0.01363308  0.13243042  0.21087808     0.19600
C690        C  0.96741377  0.11007283  0.21418485     0.24700
C691        C  0.94598469  0.09534459  0.25635670    -0.23300
C692        C  0.97221241  0.10749594  0.29535490     0.19600
F693        F  0.95342589  0.09527175  0.33679899    -0.13300
F694        F  0.04183991  0.13941733  0.33094891    -0.15600
F695        F  0.94371961  0.10136588  0.17555545    -0.15600
F696        F  0.03243824  0.14360204  0.16936854    -0.13300
C697        C  0.30622152  0.19442052  0.66199883     0.24700
C698        C  0.35171552  0.21096930  0.65653891    -0.23400
C699        C  0.36849448  0.18191438  0.65525506     0.19600
C700        C  0.34017630  0.13682790  0.66049747     0.24700
C701        C  0.29485795  0.12039519  0.66699224    -0.23300
C702        C  0.27789107  0.14932766  0.66725039     0.19600
F703        F  0.23427482  0.13424792  0.67486134    -0.13300
F704        F  0.28937715  0.22199496  0.66287070    -0.15600
F705        F  0.35686347  0.10913810  0.65893162    -0.15600
F706        F  0.41196453  0.19695390  0.64691453    -0.13300
C707        C  0.37258718  0.26981588  0.40760706     0.24700
C708        C  0.35592639  0.26111168  0.45201153    -0.23400
C709        C  0.30988734  0.23472311  0.45813146     0.19600
C710        C  0.28113400  0.21969920  0.42098784     0.24700
C711        C  0.29757434  0.23151728  0.37665264    -0.23300
C712        C  0.34380271  0.25555370  0.37046593     0.19600
F713        F  0.36125896  0.26649303  0.32837210    -0.13300
F714        F  0.41672519  0.29490722  0.40001722    -0.15600
F715        F  0.23692411  0.19605454  0.42877378    -0.15600
F716        F  0.29248436  0.22444438  0.50028636    -0.13300
C717        C  0.68236631  0.46351519  0.62434738     0.24700
C718        C  0.70472604  0.47471329  0.58233203    -0.23400
C719        C  0.67914771  0.46508626  0.54298119     0.19600
C720        C  0.63282831  0.44162439  0.54529768     0.24700
C721        C  0.61057198  0.42690756  0.58708446    -0.23300
C722        C  0.63607007  0.43981837  0.62662244     0.19600
F723        F  0.61648941  0.42736911  0.66770106    -0.13300
F724        F  0.70511905  0.47370929  0.66370616    -0.15600
F725        F  0.60989014  0.43195841  0.50609119    -0.15600
F726        F  0.69870860  0.47641216  0.50182491    -0.13300
C727        C  0.54529256  0.19979197  0.62892118     0.24700
C728        C  0.56127064  0.19000434  0.58959433    -0.23400
C729        C  0.54919481  0.19986699  0.54750980     0.19600
C730        C  0.52611995  0.22296213  0.54500091     0.24700
C731        C  0.51410645  0.23672954  0.58439956    -0.23300
C732        C  0.52195823  0.22272721  0.62638149     0.19600
F733        F  0.50862717  0.23266578  0.66546922    -0.13300
F734        F  0.55407906  0.18929202  0.67017084    -0.15600
F735        F  0.51796397  0.23399939  0.50372517    -0.15600
F736        F  0.56134806  0.18898516  0.50824241    -0.13300
C737        C  0.38359810  0.44130963  0.74055772     0.24700
C738        C  0.39670536  0.43906057  0.78480734    -0.23400
C739        C  0.42666974  0.42378449  0.79135130     0.19600
C740        C  0.44092070  0.40833600  0.75486486     0.24700
C741        C  0.42455373  0.40668902  0.71099661    -0.23300
C742        C  0.39700895  0.42503475  0.70419195     0.19600
F743        F  0.38162218  0.42587155  0.66244708    -0.13300
F744        F  0.35493279  0.45612809  0.73282844    -0.15600
F745        F  0.46864631  0.39251716  0.76314759    -0.15600
F746        F  0.44126182  0.42270731  0.83342762    -0.13300
C747        C  0.22593778  0.31687382  0.03698674     0.24700
C748        C  0.25156722  0.36274365  0.04418528    -0.23400
C749        C  0.25975365  0.37832820  0.08886140     0.19600
C750        C  0.24574910  0.34873315  0.12529645     0.24700
C751        C  0.22241110  0.30269615  0.11812191    -0.23300
C752        C  0.21104142  0.28721551  0.07350544     0.19600
F753        F  0.18809203  0.24322172  0.06486289    -0.13300
F754        F  0.21633002  0.30062850  0.99441149    -0.15600
F755        F  0.25644060  0.36525620  0.16769907    -0.15600
F756        F  0.28431478  0.42227700  0.09733416    -0.13300
C757        C  0.13793306  0.28948047  0.84216232     0.24700
C758        C  0.11442818  0.30527177  0.81729496    -0.23400
C759        C  0.13689058  0.34931538  0.80178230     0.19600
C760        C  0.18146366  0.37689687  0.81132142     0.24700
C761        C  0.20475069  0.36130184  0.83683827    -0.23300
C762        C  0.18249208  0.31702365  0.85161387     0.19600
F763        F  0.20351042  0.29998948  0.87570436    -0.13300
F764        F  0.11820590  0.24713522  0.85717267    -0.15600
F765        F  0.20130848  0.41919954  0.79618831    -0.15600
F766        F  0.11599721  0.36617158  0.77720814    -0.13300
C767        C  0.43696761  0.64631099  0.87986696     0.24700
C768        C  0.41886240  0.62036197  0.91871076    -0.23400
C769        C  0.42937038  0.64187040  0.96108735     0.19600
C770        C  0.45344781  0.68798543  0.96404475     0.24700
C771        C  0.46806010  0.71400752  0.92484616    -0.23300
C772        C  0.46133468  0.69240938  0.88288129     0.19600
F773        F  0.47674933  0.71583814  0.84409793    -0.13300
F774        F  0.42948268  0.62741760  0.83848647    -0.15600
F775        F  0.46002715  0.70695490  0.00533696    -0.15600
F776        F  0.41473075  0.61858635  0.00006349    -0.13300
C777        C  0.19596439  0.56192145  0.87165816     0.24700
C778        C  0.18069320  0.57206666  0.91118021    -0.23400
C779        C  0.18532314  0.55450438  0.95240394     0.19600
C780        C  0.20875211  0.53163892  0.95463640     0.24700
C781        C  0.22783368  0.52522840  0.91564691    -0.23300
C782        C  0.21897895  0.53871589  0.87376831     0.19600
F783        F  0.23445182  0.53157773  0.83452532    -0.13300
F784        F  0.19130039  0.57687574  0.83099105    -0.15600
F785        F  0.21430612  0.51760393  0.99543715    -0.15600
F786        F  0.16859008  0.56083831  0.99120431    -0.13300
C787        C  0.68003164  0.88008311  0.84525216     0.24700
C788        C  0.63433316  0.85080157  0.84813400    -0.23400
C789        C  0.61744414  0.80528867  0.84244454     0.19600
C790        C  0.64589838  0.78922311  0.83379932     0.24700
C791        C  0.69161680  0.81848211  0.83057454    -0.23300
C792        C  0.70851774  0.86408386  0.83640171     0.19600
F793        F  0.75237032  0.89344594  0.83179875    -0.13300
F794        F  0.69705789  0.92426188  0.85040623    -0.15600
F795        F  0.62875680  0.74499085  0.82913039    -0.15600
F796        F  0.57358215  0.77611323  0.84716803    -0.13300
C797        C  0.79747941  0.62171296  0.66718794     0.24700
C798        C  0.84240630  0.63936759  0.65633460    -0.23400
C799        C  0.87045857  0.68532316  0.65467476     0.19600
C800        C  0.85397756  0.71324839  0.66421350     0.24700
C801        C  0.80904280  0.69561154  0.67533580    -0.23300
C802        C  0.78094514  0.64961831  0.67667299     0.19600
F803        F  0.73732196  0.63155050  0.68669125    -0.13300
F804        F  0.76907230  0.57744367  0.66698069    -0.15600
F805        F  0.88252033  0.75750155  0.66421712    -0.15600
F806        F  0.91404087  0.70331536  0.64445110    -0.13300
C807        C  0.86127319  0.97558937  0.78730594     0.24700
C808        C  0.85073626  0.95246724  0.74600265    -0.23400
C809        C  0.86025838  0.97676708  0.70574588     0.19600
C810        C  0.88310723  0.02298313  0.70667858     0.24700
C811        C  0.89725062  0.04613602  0.74794999    -0.23300
C812        C  0.88429397  0.02173240  0.78824914     0.19600
F813        F  0.89608188  0.04226262  0.82883463    -0.13300
F814        F  0.85097179  0.95366508  0.82721667    -0.15600
F815        F  0.89288368  0.04490840  0.66677321    -0.15600
F816        F  0.84995031  0.95609555  0.66517215    -0.13300
C817        C  0.96859910  0.87241757  0.70777113     0.24700
C818        C  0.94644687  0.86001617  0.74973418    -0.23400
C819        C  0.97194019  0.86819269  0.78900341     0.19600
C820        C  0.01820506  0.89133119  0.78669248     0.24700
C821        C  0.04025980  0.90668205  0.74501625    -0.23300
C822        C  0.01478155  0.89540859  0.70549496     0.19600
F823        F  0.03434074  0.90918439  0.66455622    -0.13300
F824        F  0.94577033  0.86408988  0.66860073    -0.15600
F825        F  0.04131328  0.90011212  0.82571070    -0.15600
F826        F  0.95238042  0.85598413  0.83011031    -0.13300
C827        C  0.80004183  0.68172556  0.15025404     0.24700
C828        C  0.78068470  0.63610738  0.15848911    -0.23400
C829        C  0.80740864  0.61919929  0.17384147     0.19600
C830        C  0.85244576  0.64724639  0.18043006     0.24700
C831        C  0.87170460  0.69284827  0.17219793    -0.23300
C832        C  0.84501181  0.70969789  0.15680132     0.19600
F833        F  0.86186906  0.75358523  0.14954008    -0.13300
F834        F  0.77554582  0.69968881  0.13601971    -0.15600
F835        F  0.87709512  0.62953642  0.19493588    -0.15600
F836        F  0.79045040  0.57536221  0.18157073    -0.13300
C837        C  0.77170303  0.71510591  0.92780609     0.24700
C838        C  0.76386858  0.69946021  0.88307894    -0.23400
C839        C  0.74188789  0.65350817  0.87587837     0.19600
C840        C  0.72565756  0.62397591  0.91215459     0.24700
C841        C  0.73064954  0.63951421  0.95676627    -0.23300
C842        C  0.75496603  0.68546473  0.96421953     0.19600
F843        F  0.76143016  0.70183438  0.00674140    -0.13300
F844        F  0.79275814  0.75911978  0.93636996    -0.15600
F845        F  0.70214198  0.58005735  0.90318537    -0.15600
F846        F  0.73437190  0.63694458  0.83339178    -0.13300
C847        C  0.51553497  0.54298053  0.01842972     0.24700
C848        C  0.53553337  0.51720861  0.01029169    -0.23400
C849        C  0.50939933  0.47389315  0.99398809     0.19600
C850        C  0.46456276  0.45689597  0.98571862     0.24700
C851        C  0.44468912  0.48280436  0.99335693    -0.23300
C852        C  0.47061659  0.52593832  0.01010170     0.19600
F853        F  0.45305288  0.55243941  0.01688994    -0.13300
F854        F  0.53943763  0.58499430  0.03401528    -0.15600
F855        F  0.44061509  0.41482137  0.97027805    -0.15600
F856        F  0.52673351  0.44720056  0.98714776    -0.13300
C857        C  0.76504711  0.46297347  0.11809096     0.24700
C858        C  0.75330631  0.47393812  0.07642480    -0.23400
C859        C  0.76922090  0.46479693  0.03665169     0.19600
C860        C  0.79303280  0.44224005  0.03840800     0.24700
C861        C  0.80121123  0.42781859  0.08001322    -0.23300
C862        C  0.78831218  0.44008905  0.11980536     0.19600
F863        F  0.79585536  0.42782603  0.16071788    -0.13300
F864        F  0.75251516  0.47274278  0.15777345    -0.15600
F865        F  0.80666491  0.43321237  0.99898223    -0.15600
F866        F  0.75998434  0.47562297  0.99578326    -0.13300
C867        C  0.55022036  0.35447897  0.12033193     0.24700
C868        C  0.56595046  0.38032101  0.08114900    -0.23400
C869        C  0.55577878  0.35874172  0.03886053     0.19600
C870        C  0.53374735  0.31272016  0.03616674     0.24700
C871        C  0.52072304  0.28698632  0.07553813    -0.23300
C872        C  0.52779256  0.30846325  0.11758444     0.19600
F873        F  0.51472717  0.28509266  0.15661271    -0.13300
F874        F  0.55864488  0.37348738  0.16171388    -0.15600
F875        F  0.52788858  0.29368870  0.99498188    -0.15600
F876        F  0.56896014  0.38199055  0.99974380    -0.13300
C877        C  0.55951309  0.57706549  0.21099685     0.24700
C878        C  0.58863860  0.56071063  0.21722169    -0.23400
C879        C  0.60105610  0.55721861  0.26147929     0.19600
C880        C  0.58764113  0.57315907  0.29817764     0.24700
C881        C  0.56077008  0.59229487  0.29163484    -0.23300
C882        C  0.54540911  0.59225176  0.24768626     0.19600
F883        F  0.51894167  0.60957148  0.23952378    -0.13300
F884        F  0.54572243  0.57967158  0.16896976    -0.15600
F885        F  0.60228082  0.57115342  0.33997171    -0.15600
F886        F  0.62892455  0.54139123  0.26901039    -0.13300
C887        C  0.63930437  0.74027983  0.63239450     0.24700
C888        C  0.68546250  0.76380248  0.62498331    -0.23400
C889        C  0.70087512  0.77395499  0.58023765     0.19600
C890        C  0.67124463  0.75927098  0.54398688     0.24700
C891        C  0.62527116  0.73441437  0.55125032    -0.23300
C892        C  0.60958614  0.72605801  0.59597939     0.19600
F893        F  0.56557892  0.70126571  0.60450639    -0.13300
F894        F  0.62281072  0.72962160  0.67488423    -0.15600
F895        F  0.68775161  0.76803550  0.50142272    -0.15600
F896        F  0.74487319  0.79537256  0.57114805    -0.13300
C897        C  0.70597833  0.85239001  0.34780216     0.24700
C898        C  0.68831937  0.87847789  0.33243869    -0.23400
C899        C  0.64251131  0.85843141  0.32491383     0.19600
C900        C  0.61511168  0.81336436  0.33201297     0.24700
C901        C  0.63281592  0.78723791  0.34694651    -0.23300
C902        C  0.67854528  0.80730689  0.35492691     0.19600
F903        F  0.69702183  0.78333586  0.36934725    -0.13300
F904        F  0.75005631  0.86998797  0.35467045    -0.15600
F905        F  0.57096694  0.79577099  0.32562771    -0.15600
F906        F  0.62390147  0.88236641  0.31081126    -0.13300
C907        C  0.46144462  0.51525680  0.50150438     0.24700
C908        C  0.50714191  0.54386853  0.49615144    -0.23400
C909        C  0.53615419  0.52709219  0.49824072     0.19600
C910        C  0.51970283  0.48222196  0.50472325     0.24700
C911        C  0.47396243  0.45346244  0.50927728    -0.23300
C912        C  0.44497304  0.47034366  0.50796758     0.19600
F913        F  0.40062088  0.44330057  0.51244393    -0.13300
F914        F  0.43246915  0.53033007  0.49850347    -0.15600
F915        F  0.54873424  0.46728861  0.50841961    -0.15600
F916        F  0.58053798  0.55422796  0.49435244    -0.13300
C917        C  0.45179871  0.77123794  0.45450944     0.24700
C918        C  0.46485205  0.75784107  0.41556332    -0.23400
C919        C  0.45677999  0.77110533  0.37320557     0.19600
C920        C  0.43361474  0.79422687  0.36994191     0.24700
C921        C  0.41800893  0.80503173  0.40886266    -0.23300
C922        C  0.42901031  0.79459316  0.45127634     0.19600
F923        F  0.41628283  0.80541713  0.49022459    -0.13300
F924        F  0.45881700  0.75973708  0.49605942    -0.15600
F925        F  0.42469326  0.80402089  0.32841312    -0.15600
F926        F  0.46989464  0.76042039  0.33443428    -0.13300
C927        C  0.34860377  0.55267392  0.37323866     0.24700
C928        C  0.37306002  0.56926528  0.41317894    -0.23400
C929        C  0.34983440  0.55813733  0.45460919     0.19600
C930        C  0.30365381  0.53535471  0.45572280     0.24700
C931        C  0.27918611  0.52263338  0.41555662    -0.23300
C932        C  0.30226534  0.52965669  0.37439647     0.19600
F933        F  0.28014513  0.51591485  0.33477011    -0.13300
F934        F  0.36924549  0.56061635  0.33267525    -0.15600
F935        F  0.28317832  0.52852898  0.49626623    -0.15600
F936        F  0.37160405  0.57112928  0.49448995    -0.13300
loop_ 
_geom_bond_atom_site_label_1 
_geom_bond_atom_site_label_2 
_geom_bond_distance 
_geom_bond_site_symmetry_2 
_ccdc_geom_bond_type 
Fe1          O17   2.032       .  S
Fe1           O7   2.069       .  S
Fe1          O14   2.058       .  S
Fe1           O6   2.038       .  S
Fe1          O12   1.966       .  S
Fe2           O5   2.055       .  S
Fe2           O9   2.069       .  S
Fe2          O13   2.081       .  S
Fe2          O18   2.087       .  S
Fe2          O12   1.966       .  S
Fe3          O21   2.082       .  S
Fe3           O8   2.064       .  S
Fe3          O15   2.074       .  S
Fe3           O4   2.074       .  S
Fe3          O12   1.966       .  S
O4           C11   1.279       .  A
O5           C19   1.267       .  A
O6           C11   1.273       .  A
O7           C10   1.263       .  A
O8           C20   1.268       .  A
O9           C22   1.277       .  A
C10          O15   1.264       .  A
C10         C881   1.499       .  S
C11         C901   1.472       .  S
O13          C16   1.266       .  A
O14          C16   1.262       .  A
C16         C891   1.493       .  S
O17          C22   1.272       .  A
O18          C20   1.276       .  A
C19          O21   1.274       .  A
C19         C928   1.493       .  S
C20         C918   1.499       .  S
C22         C908   1.460       .  S
Fe23         O39   2.041       .  S
Fe23         O29   2.065       .  S
Fe23         O36   2.071       .  S
Fe23         O28   2.037       .  S
Fe23         O34   1.965       .  S
Fe24         O27   2.047       .  S
Fe24         O31   2.078       .  S
Fe24         O35   2.061   1_554  S
Fe24         O40   2.090       .  S
Fe24         O34   1.965       .  S
Fe25         O43   2.075       .  S
Fe25         O30   2.056       .  S
Fe25         O37   2.073       .  S
Fe25         O26   2.063       .  S
Fe25         O34   1.965       .  S
O26          C33   1.277       .  A
O27          C41   1.266       .  A
O28          C33   1.273       .  A
O29          C32   1.263       .  A
O30          C42   1.266       .  A
O31          C44   1.279       .  A
C32          O37   1.264       .  A
C32         C878   1.492       .  S
C33         C828   1.470       .  S
O35          C38   1.263       .  A
O36          C38   1.264   1_554  A
C38         C841   1.492       .  S
O39          C44   1.272       .  A
O40          C42   1.274       .  A
C41          O43   1.274       .  A
C41         C868   1.486       .  S
C42         C858   1.497       .  S
C44         C848   1.477       .  S
Fe45         O61   2.042       .  S
Fe45         O51   2.063       .  S
Fe45         O58   2.053       .  S
Fe45         O50   2.044       .  S
Fe45         O56   1.962       .  S
Fe46         O49   2.064       .  S
Fe46         O53   2.055       .  S
Fe46         O57   2.075       .  S
Fe46         O62   2.072       .  S
Fe46         O56   1.965       .  S
Fe47         O65   2.071       .  S
Fe47         O52   2.070       .  S
Fe47         O59   2.075       .  S
Fe47         O48   2.055       .  S
Fe47         O56   1.961       .  S
O48          C55   1.275       .  A
O49          C63   1.269       .  A
O50          C55   1.274       .  A
O51          C54   1.262       .  A
O52          C64   1.270       .  A
O53          C66   1.276       .  A
C54          O59   1.265       .  A
C54         C888   1.497       .  S
C55         C801   1.463       .  S
O57          C60   1.264       .  A
O58          C60   1.261       .  A
C60         C838   1.491       .  S
O61          C66   1.274       .  A
O62          C64   1.272       .  A
C63          O65   1.272       .  A
C63         C808   1.489       .  S
C64         C818   1.493       .  S
C66         C791   1.460       .  S
Fe67         O83   2.072       .  S
Fe67         O73   2.030       .  S
Fe67         O80   2.030       .  S
Fe67         O72   2.075       .  S
Fe67         O78   1.965       .  S
Fe68         O71   2.088       .  S
Fe68         O75   2.073       .  S
Fe68         O79   2.079       .  S
Fe68         O84   2.053       .  S
Fe68         O78   1.966       .  S
Fe69         O87   2.050       .  S
Fe69         O74   2.096       .  S
Fe69         O81   2.086       .  S
Fe69         O70   2.073   1_556  S
Fe69         O78   1.968       .  S
O70          C77   1.265       .  A
O71          C85   1.276       .  A
O72          C77   1.265   1_556  A
O73          C76   1.271       .  A
O74          C86   1.276       .  A
O75          C88   1.264       .  A
C76          O81   1.280       .  A
C76         C851   1.474       .  S
C77         C748   1.493       .  S
O79          C82   1.279       .  A
O80          C82   1.271       .  A
C82         C761   1.476       .  S
O83          C88   1.264       .  A
O84          C86   1.266       .  A
C85          O87   1.266       .  A
C85         C768   1.495       .  S
C86         C781   1.500       .  S
C88         C738   1.491       .  S
Fe89        O105   2.070       .  S
Fe89         O95   2.028       .  S
Fe89        O102   2.027       .  S
Fe89         O94   2.073       .  S
Fe89        O100   1.971       .  S
Fe90         O93   2.086       .  S
Fe90         O97   2.081       .  S
Fe90        O101   2.070       .  S
Fe90        O106   2.065       .  S
Fe90        O100   1.968       .  S
Fe91        O109   2.061       .  S
Fe91         O96   2.083       .  S
Fe91        O103   2.068       .  S
Fe91         O92   2.075       .  S
Fe91        O100   1.965       .  S
O92          C99   1.265       .  A
O93         C107   1.274       .  A
O94          C99   1.265       .  A
O95          C98   1.271       .  A
O96         C108   1.275       .  A
O97         C110   1.266       .  A
C98         O103   1.278       .  A
C98         C911   1.460       .  S
C99         C708   1.497       .  S
O101        C104   1.277       .  A
O102        C104   1.270       .  A
C104        C698   1.454       .  S
O105        C110   1.265       .  A
O106        C108   1.269       .  A
C107        O109   1.267       .  A
C107        C721   1.497       .  S
C108        C731   1.496       .  S
C110        C741   1.502       .  S
Fe111       O127   2.068       .  S
Fe111       O117   2.042       .  S
Fe111       O124   2.040       .  S
Fe111       O116   2.075       .  S
Fe111       O122   1.967       .  S
Fe112       O115   2.087       .  S
Fe112       O119   2.079       .  S
Fe112       O123   2.073       .  S
Fe112       O128   2.067       .  S
Fe112       O122   1.972       .  S
Fe113       O131   2.053       .  S
Fe113       O118   2.074       .  S
Fe113       O125   2.068       .  S
Fe113       O114   2.072       .  S
Fe113       O122   1.966       .  S
O114        C121   1.264       .  A
O115        C129   1.275       .  A
O116        C121   1.265       .  A
O117        C120   1.273       .  A
O118        C130   1.273       .  A
O119        C132   1.266       .  A
C120        O125   1.276       .  A
C120        C668   1.465       .  S
C121        C711   1.499       .  S
O123        C126   1.278       .  A
O124        C126   1.273       .  A
C126        C661   1.467       .  S
O127        C132   1.264       .  A
O128        C130   1.269       .  A
C129        O131   1.266       .  A
C129        C688   1.496       .  S
C130        C678   1.490       .  S
C132        C751   1.498       .  S
Fe133       O149   2.033       .  S
Fe133       O139   2.068       .  S
Fe133       O146   2.066       .  S
Fe133       O138   2.036       .  S
Fe133       O144   1.963       .  S
Fe134       O137   2.065       .  S
Fe134       O141   2.061       .  S
Fe134       O145   2.079   1_554  S
Fe134       O150   2.071       .  S
Fe134       O144   1.967       .  S
Fe135       O153   2.084       .  S
Fe135       O140   2.052       .  S
Fe135       O147   2.076       .  S
Fe135       O136   2.073       .  S
Fe135       O144   1.967       .  S
O136        C143   1.278       .  A
O137        C151   1.269       .  A
O138        C143   1.272       .  A
O139        C142   1.264       .  A
O140        C152   1.266       .  A
O141        C154   1.276       .  A
C142        O147   1.265       .  A
C142        C638   1.499       .  S
C143        C658   1.468       .  S
O145        C148   1.265       .  A
O146        C148   1.263   1_554  A
C148        C628   1.499       .  S
O149        C154   1.272       .  A
O150        C152   1.272       .  A
C151        O153   1.275       .  A
C151        C648   1.496       .  S
C152        C871   1.485       .  S
C154        C621   1.467       .  S
Fe155       O171   2.037       .  S
Fe155       O161   2.068       .  S
Fe155       O168   2.066   1_545  S
Fe155       O160   2.042   1_545  S
Fe155       O166   1.965       .  S
Fe156       O159   2.066   1_565  S
Fe156       O163   2.058   1_565  S
Fe156       O167   2.078       .  S
Fe156       O172   2.070       .  S
Fe156       O166   1.967   1_565  S
Fe157       O175   2.077       .  S
Fe157       O162   2.069   1_545  S
Fe157       O169   2.080       .  S
Fe157       O158   2.064   1_545  S
Fe157       O166   1.966       .  S
O158        C165   1.277       .  A
O159        C173   1.269       .  A
O160        C165   1.274       .  A
O161        C164   1.263       .  A
O162        C174   1.270       .  A
O163        C176   1.276       .  A
C164        O169   1.266       .  A
C164        C631   1.498       .  S
C165        C601   1.466       .  S
O167        C170   1.265       .  A
O168        C170   1.263       .  A
C170        C591   1.502       .  S
O171        C176   1.273       .  A
O172        C174   1.272       .  A
C173        O175   1.273       .  A
C173        C611   1.494       .  S
C174        C821   1.490       .  S
C176        C701   1.453       .  S
Fe177       O193   2.037       .  S
Fe177       O183   2.067       .  S
Fe177       O190   2.076       .  S
Fe177       O182   2.035       .  S
Fe177       O188   1.971       .  S
Fe178       O181   2.056       .  S
Fe178       O185   2.064       .  S
Fe178       O189   2.070       .  S
Fe178       O194   2.081       .  S
Fe178       O188   1.963       .  S
Fe179       O197   2.094       .  S
Fe179       O184   2.060       .  S
Fe179       O191   2.080       .  S
Fe179       O180   2.072       .  S
Fe179       O188   1.969       .  S
O180        C187   1.278       .  A
O181        C195   1.266       .  A
O182        C187   1.272       .  A
O183        C186   1.264       .  A
O184        C196   1.268       .  A
O185        C198   1.277       .  A
C186        O191   1.266       .  A
C186        C641   1.496       .  S
C187        C558   1.460       .  S
O189        C192   1.264       .  A
O190        C192   1.265       .  A
C192        C588   1.494       .  S
O193        C198   1.272       .  A
O194        C196   1.274       .  A
C195        O197   1.276       .  A
C195        C921   1.499       .  S
C196        C581   1.492       .  S
C198        C571   1.465       .  S
Fe199       O215   2.063       .  S
Fe199       O205   2.028       .  S
Fe199       O212   2.028       .  S
Fe199       O204   2.068       .  S
Fe199       O210   1.970       .  S
Fe200       O203   2.081       .  S
Fe200       O207   2.075   1_556  S
Fe200       O211   2.067       .  S
Fe200       O216   2.064       .  S
Fe200       O210   1.969       .  S
Fe201       O219   2.058       .  S
Fe201       O206   2.080       .  S
Fe201       O213   2.068       .  S
Fe201       O202   2.073       .  S
Fe201       O210   1.965       .  S
O202        C209   1.265       .  A
O203        C217   1.275       .  A
O204        C209   1.264       .  A
O205        C208   1.270       .  A
O206        C218   1.272       .  A
O207        C220   1.265       .  A
C208        O213   1.276       .  A
C208        C788   1.457       .  S
C209        C538   1.499       .  S
O211        C214   1.277       .  A
O212        C214   1.270       .  A
C214        C618   1.467       .  S
O215        C220   1.263   1_556  A
O216        C218   1.268       .  A
C217        O219   1.268       .  A
C217        C771   1.492       .  S
C218        C548   1.497       .  S
C220        C528   1.492       .  S
Fe221       O237   2.064       .  S
Fe221       O227   2.047       .  S
Fe221       O234   2.045   1_545  S
Fe221       O226   2.069   1_545  S
Fe221       O232   1.967       .  S
Fe222       O225   2.083   1_565  S
Fe222       O229   2.080   1_565  S
Fe222       O233   2.067       .  S
Fe222       O238   2.067       .  S
Fe222       O232   1.970   1_565  S
Fe223       O241   2.057       .  S
Fe223       O228   2.071   1_545  S
Fe223       O235   2.064       .  S
Fe223       O224   2.066   1_545  S
Fe223       O232   1.965       .  S
O224        C231   1.263       .  A
O225        C239   1.275       .  A
O226        C231   1.264       .  A
O227        C230   1.273       .  A
O228        C240   1.271       .  A
O229        C242   1.266       .  A
C230        O235   1.275       .  A
C230        C501   1.478       .  S
C231        C531   1.494       .  S
O233        C236   1.277       .  A
O234        C236   1.274       .  A
C236        C898   1.474       .  S
O237        C242   1.263       .  A
O238        C240   1.269       .  A
C239        O241   1.267       .  A
C239        C691   1.494       .  S
C240        C518   1.493       .  S
C242        C511   1.492       .  S
Fe243       O259   2.066       .  S
Fe243       O249   2.033       .  S
Fe243       O256   2.033       .  S
Fe243       O248   2.063       .  S
Fe243       O254   1.968       .  S
Fe244       O247   2.071       .  S
Fe244       O251   2.080       .  S
Fe244       O255   2.064       .  S
Fe244       O260   2.065       .  S
Fe244       O254   1.966       .  S
Fe245       O263   2.063       .  S
Fe245       O250   2.089       .  S
Fe245       O257   2.066       .  S
Fe245       O246   2.075       .  S
Fe245       O254   1.970       .  S
O246        C253   1.265       .  A
O247        C261   1.270       .  A
O248        C253   1.262       .  A
O249        C252   1.272       .  A
O250        C262   1.278       .  A
O251        C264   1.267       .  A
C252        O257   1.278       .  A
C252        C481   1.461       .  S
C253        C541   1.492       .  S
O255        C258   1.274       .  A
O256        C258   1.271       .  A
C258        C568   1.462       .  S
O259        C264   1.264       .  A
O260        C262   1.271       .  A
C261        O263   1.266       .  A
C261        C488   1.488       .  S
C262        C728   1.497       .  S
C264        C508   1.499       .  S
Fe265       O281   2.048       .  S
Fe265       O271   2.061       .  S
Fe265       O278   2.059       .  S
Fe265       O270   2.047       .  S
Fe265       O276   1.968       .  S
Fe266       O269   2.059       .  S
Fe266       O273   2.069       .  S
Fe266       O277   2.068       .  S
Fe266       O282   2.077       .  S
Fe266       O276   1.965       .  S
Fe267       O285   2.083       .  S
Fe267       O272   2.061       .  S
Fe267       O279   2.073       .  S
Fe267       O268   2.067       .  S
Fe267       O276   1.969       .  S
O268        C275   1.277       .  A
O269        C283   1.268       .  A
O270        C275   1.274       .  A
O271        C274   1.262       .  A
O272        C284   1.267       .  A
O273        C286   1.277       .  A
C274        O279   1.265       .  A
C274        C468   1.490       .  S
C275        C671   1.469       .  S
O277        C280   1.264       .  A
O278        C280   1.262       .  A
C280        C458   1.487       .  S
O281        C286   1.274       .  A
O282        C284   1.273       .  A
C283        O285   1.275       .  A
C283        C578   1.495       .  S
C284        C931   1.491       .  S
C286        C451   1.473       .  S
Fe287       O303   2.039       .  S
Fe287       O293   2.062       .  S
Fe287       O300   2.063       .  S
Fe287       O292   2.036       .  S
Fe287       O298   1.966       .  S
Fe288       O291   2.059       .  S
Fe288       O295   2.071       .  S
Fe288       O299   2.072   1_554  S
Fe288       O304   2.082       .  S
Fe288       O298   1.964       .  S
Fe289       O307   2.083       .  S
Fe289       O294   2.062       .  S
Fe289       O301   2.078       .  S
Fe289       O290   2.075       .  S
Fe289       O298   1.965       .  S
O290        C297   1.277       .  A
O291        C305   1.266       .  A
O292        C297   1.272       .  A
O293        C296   1.263       .  A
O294        C306   1.269       .  A
O295        C308   1.279       .  A
C296        O301   1.266       .  A
C296        C471   1.494       .  S
C297        C498   1.477       .  S
O299        C302   1.264       .  A
O300        C302   1.262   1_554  A
C302        C428   1.490       .  S
O303        C308   1.273       .  A
O304        C306   1.276       .  A
C305        O307   1.274       .  A
C305        C861   1.496       .  S
C306        C651   1.495       .  S
C308        C438   1.476       .  S
Fe309       O325   2.034   1_655  S
Fe309       O315   2.052   1_655  S
Fe309       O322   2.056       .  S
Fe309       O314   2.031       .  S
Fe309       O320   1.964       .  S
Fe310       O313   2.061   1_655  S
Fe310       O317   2.069   1_655  S
Fe310       O321   2.079       .  S
Fe310       O326   2.076       .  S
Fe310       O320   1.962       .  S
Fe311       O329   2.082   1_655  S
Fe311       O316   2.058       .  S
Fe311       O323   2.074   1_655  S
Fe311       O312   2.068       .  S
Fe311       O320   1.968       .  S
O312        C319   1.278       .  A
O313        C327   1.269       .  A
O314        C319   1.271       .  A
O315        C318   1.260       .  A
O316        C328   1.267       .  A
O317        C330   1.277       .  A
C318        O323   1.264       .  A
C318        C461   1.492       .  S
C319        C478   1.463       .  S
O321        C324   1.265       .  A
O322        C324   1.261       .  A
C324        C431   1.496       .  S
O325        C330   1.271       .  A
O326        C328   1.273       .  A
C327        O329   1.274       .  A
C327        C608   1.493       .  S
C328        C811   1.491       .  S
C330        C758   1.476       .  S
Fe331       O347   2.057       .  S
Fe331       O337   2.035       .  S
Fe331       O344   2.037       .  S
Fe331       O336   2.063       .  S
Fe331       O342   1.970       .  S
Fe332       O335   2.080       .  S
Fe332       O339   2.076   1_556  S
Fe332       O343   2.069       .  S
Fe332       O348   2.060       .  S
Fe332       O342   1.967       .  S
Fe333       O351   2.067       .  S
Fe333       O338   2.085       .  S
Fe333       O345   2.070       .  S
Fe333       O334   2.080       .  S
Fe333       O342   1.966       .  S
O334        C341   1.266       .  A
O335        C349   1.274       .  A
O336        C341   1.262       .  A
O337        C340   1.272       .  A
O338        C350   1.275       .  A
O339        C352   1.265       .  A
C340        O345   1.277       .  A
C340        C598   1.466       .  S
C341        C418   1.497       .  S
O343        C346   1.277       .  A
O344        C346   1.271       .  A
C346        C441   1.475       .  S
O347        C352   1.262   1_556  A
O348        C350   1.268       .  A
C349        O351   1.269       .  A
C349        C551   1.498       .  S
C350        C778   1.495       .  S
C352        C408   1.490       .  S
Fe353       O369   2.060   1_655  S
Fe353       O359   2.030   1_655  S
Fe353       O366   2.031       .  S
Fe353       O358   2.059       .  S
Fe353       O364   1.967       .  S
Fe354       O357   2.079   1_655  S
Fe354       O361   2.073   1_655  S
Fe354       O365   2.068       .  S
Fe354       O370   2.063       .  S
Fe354       O364   1.970       .  S
Fe355       O373   2.059   1_655  S
Fe355       O360   2.079       .  S
Fe355       O367   2.070   1_655  S
Fe355       O356   2.079       .  S
Fe355       O364   1.966       .  S
O356        C363   1.266       .  A
O357        C371   1.273       .  A
O358        C363   1.262       .  A
O359        C362   1.270       .  A
O360        C372   1.273       .  A
O361        C374   1.264       .  A
C362        O367   1.276       .  A
C362        C561   1.456       .  S
C363        C398   1.497       .  S
O365        C368   1.277       .  A
O366        C368   1.271       .  A
C368        C831   1.469       .  S
O369        C374   1.262       .  A
O370        C372   1.268       .  A
C371        O373   1.268       .  A
C371        C681   1.495       .  S
C372        C521   1.496       .  S
C374        C411   1.491       .  S
Fe375       O391   2.068       .  S
Fe375       O381   2.032       .  S
Fe375       O388   2.039       .  S
Fe375       O380   2.064       .  S
Fe375       O386   1.966       .  S
Fe376       O379   2.092       .  S
Fe376       O383   2.072       .  S
Fe376       O387   2.081       .  S
Fe376       O392   2.047       .  S
Fe376       O386   1.963       .  S
Fe377       O395   2.059       .  S
Fe377       O382   2.088       .  S
Fe377       O389   2.068       .  S
Fe377       O378   2.077       .  S
Fe377       O386   1.968       .  S
O378        C385   1.266       .  A
O379        C393   1.277       .  A
O380        C385   1.263       .  A
O381        C384   1.272       .  A
O382        C394   1.275       .  A
O383        C396   1.264       .  A
C384        O389   1.277       .  A
C384        C798   1.461       .  S
C385        C421   1.493       .  S
O387        C390   1.280       .  A
O388        C390   1.273       .  A
C390        C448   1.474       .  S
O391        C396   1.263       .  A
O392        C394   1.265       .  A
C393        O395   1.268       .  A
C393        C718   1.500       .  S
C394        C491   1.495       .  S
C396        C401   1.489       .  S
C397        C398   1.413       .  A
C397        C402   1.403       .  A
C397        F404   1.358       .  S
C398        C399   1.411       .  A
C399        C400   1.406       .  A
C399        F406   1.358       .  S
C400        C401   1.408       .  A
C400        F405   1.358       .  S
C401        C402   1.406       .  A
C402        F403   1.358       .  S
C407        C408   1.410       .  A
C407        C412   1.403       .  A
C407        F414   1.358   1_554  S
C408        C409   1.408       .  A
C409        C410   1.403       .  A
C409        F416   1.358       .  S
C410        C411   1.410       .  A
C410        F415   1.358       .  S
C411        C412   1.409       .  A
C412        F413   1.358       .  S
C417        C418   1.412   1_655  A
C417        C422   1.406       .  A
C417        F424   1.358       .  S
C418        C419   1.410       .  A
C419        C420   1.404       .  A
C419        F426   1.357       .  S
C420        C421   1.409   1_455  A
C420        F425   1.358       .  S
C421        C422   1.409       .  A
C422        F423   1.358       .  S
C427        C428   1.407       .  A
C427        C432   1.402       .  A
C427        F434   1.358       .  S
C428        C429   1.409       .  A
C429        C430   1.406       .  A
C429        F436   1.358       .  S
C430        C431   1.411       .  A
C430        F435   1.358       .  S
C431        C432   1.412       .  A
C432        F433   1.358       .  S
C437        C438   1.411   1_455  A
C437        C442   1.391       .  A
C437        F444   1.358       .  S
C438        C439   1.407   1_554  A
C439        C440   1.391       .  A
C439        F446   1.358       .  S
C440        C441   1.411   1_655  A
C440        F445   1.358       .  S
C441        C442   1.406   1_556  A
C442        F443   1.358       .  S
C447        C448   1.408       .  A
C447        C452   1.393       .  A
C447        F454   1.358       .  S
C448        C449   1.408   1_655  A
C449        C450   1.392       .  A
C449        F456   1.358       .  S
C450        C451   1.408       .  A
C450        F455   1.358       .  S
C451        C452   1.407   1_455  A
C452        F453   1.358       .  S
C457        C458   1.407       .  A
C457        C462   1.401       .  A
C457        F464   1.358       .  S
C458        C459   1.409       .  A
C459        C460   1.404       .  A
C459        F466   1.358       .  S
C460        C461   1.410       .  A
C460        F465   1.358       .  S
C461        C462   1.411       .  A
C462        F463   1.358       .  S
C467        C468   1.408       .  A
C467        C472   1.403       .  A
C467        F474   1.358       .  S
C468        C469   1.409   1_455  A
C469        C470   1.405       .  A
C469        F476   1.358       .  S
C470        C471   1.410       .  A
C470        F475   1.358       .  S
C471        C472   1.411   1_655  A
C472        F473   1.358       .  S
C477        C478   1.402       .  A
C477        C482   1.389       .  A
C477        F484   1.358       .  S
C478        C479   1.411       .  A
C479        C480   1.388       .  A
C479        F486   1.358       .  S
C480        C481   1.400       .  A
C480        F485   1.358       .  S
C481        C482   1.409       .  A
C482        F483   1.358       .  S
C487        C488   1.412       .  A
C487        C492   1.404       .  A
C487        F494   1.358       .  S
C488        C489   1.403       .  A
C489        C490   1.396       .  A
C489        F496   1.358       .  S
C490        C491   1.417       .  A
C490        F495   1.358       .  S
C491        C492   1.408       .  A
C492        F493   1.358       .  S
C497        C498   1.409       .  A
C497        C502   1.390       .  A
C497        F504   1.359       .  S
C498        C499   1.409       .  A
C499        C500   1.393       .  A
C499        F506   1.358       .  S
C500        C501   1.409       .  A
C500        F505   1.358       .  S
C501        C502   1.409       .  A
C502        F503   1.358       .  S
C507        C508   1.411       .  A
C507        C512   1.406       .  A
C507        F514   1.358       .  S
C508        C509   1.413       .  A
C509        C510   1.404       .  A
C509        F516   1.358       .  S
C510        C511   1.407       .  A
C510        F515   1.358       .  S
C511        C512   1.409       .  A
C512        F513   1.358       .  S
C517        C518   1.413       .  A
C517        C522   1.401       .  A
C517        F524   1.358       .  S
C518        C519   1.407       .  A
C519        C520   1.400       .  A
C519        F526   1.358       .  S
C520        C521   1.415       .  A
C520        F525   1.358       .  S
C521        C522   1.408       .  A
C522        F523   1.358       .  S
C527        C528   1.409       .  A
C527        C532   1.405       .  A
C527        F534   1.358       .  S
C528        C529   1.409       .  A
C529        C530   1.403       .  A
C529        F536   1.358       .  S
C530        C531   1.410       .  A
C530        F535   1.358       .  S
C531        C532   1.410       .  A
C532        F533   1.358       .  S
C537        C538   1.412       .  A
C537        C542   1.405       .  A
C537        F544   1.357       .  S
C538        C539   1.412   1_565  A
C539        C540   1.404       .  A
C539        F546   1.358       .  S
C540        C541   1.409       .  A
C540        F545   1.358       .  S
C541        C542   1.408   1_545  A
C542        F543   1.358       .  S
C547        C548   1.408       .  A
C547        C552   1.403       .  A
C547        F554   1.358       .  S
C548        C549   1.414       .  A
C549        C550   1.401       .  A
C549        F556   1.358       .  S
C550        C551   1.408       .  A
C550        F555   1.358       .  S
C551        C552   1.416       .  A
C552        F553   1.358       .  S
C557        C558   1.404       .  A
C557        C562   1.391       .  A
C557        F564   1.358       .  S
C558        C559   1.406       .  A
C559        C560   1.390       .  A
C559        F566   1.358       .  S
C560        C561   1.402       .  A
C560        F565   1.358       .  S
C561        C562   1.404       .  A
C562        F563   1.359       .  S
C567        C568   1.404   1_565  A
C567        C572   1.388       .  A
C567        F574   1.358       .  S
C568        C569   1.406       .  A
C569        C570   1.391       .  A
C569        F576   1.358       .  S
C570        C571   1.407   1_545  A
C570        F575   1.358       .  S
C571        C572   1.407       .  A
C572        F573   1.358       .  S
C577        C578   1.407       .  A
C577        C582   1.400       .  A
C577        F584   1.358       .  S
C578        C579   1.417       .  A
C579        C580   1.400       .  A
C579        F586   1.358       .  S
C580        C581   1.405       .  A
C580        F585   1.358       .  S
C581        C582   1.415       .  A
C582        F583   1.358       .  S
C587        C588   1.408       .  A
C587        C592   1.408       .  A
C587        F594   1.358       .  S
C588        C589   1.408       .  A
C589        C590   1.404       .  A
C589        F596   1.358       .  S
C590        C591   1.412       .  A
C590        F595   1.358       .  S
C591        C592   1.413       .  A
C592        F593   1.357       .  S
C597        C598   1.407       .  A
C597        C602   1.390       .  A
C597        F604   1.358       .  S
C598        C599   1.406       .  A
C599        C600   1.390       .  A
C599        F606   1.359       .  S
C600        C601   1.407       .  A
C600        F605   1.358       .  S
C601        C602   1.405       .  A
C602        F603   1.358       .  S
C607        C608   1.407       .  A
C607        C612   1.403       .  A
C607        F614   1.358       .  S
C608        C609   1.414       .  A
C609        C610   1.399       .  A
C609        F616   1.358       .  S
C610        C611   1.406       .  A
C610        F615   1.358       .  S
C611        C612   1.416       .  A
C612        F613   1.358       .  S
C617        C618   1.408   1_545  A
C617        C622   1.389       .  A
C617        F624   1.359       .  S
C618        C619   1.406   1_556  A
C619        C620   1.388       .  A
C619        F626   1.358       .  S
C620        C621   1.407   1_565  A
C620        F625   1.358       .  S
C621        C622   1.408   1_554  A
C622        F623   1.359       .  S
C627        C628   1.411       .  A
C627        C632   1.407       .  A
C627        F634   1.358       .  S
C628        C629   1.411       .  A
C629        C630   1.406       .  A
C629        F636   1.358       .  S
C630        C631   1.410       .  A
C630        F635   1.358       .  S
C631        C632   1.411       .  A
C632        F633   1.358       .  S
C637        C638   1.411   1_565  A
C637        C642   1.406       .  A
C637        F644   1.358       .  S
C638        C639   1.411       .  A
C639        C640   1.406       .  A
C639        F646   1.358       .  S
C640        C641   1.410   1_545  A
C640        F645   1.358       .  S
C641        C642   1.409       .  A
C642        F643   1.358       .  S
C647        C648   1.408       .  A
C647        C652   1.403       .  A
C647        F654   1.358       .  S
C648        C649   1.415       .  A
C649        C650   1.400       .  A
C649        F656   1.358   1_554  S
C650        C651   1.406       .  A
C650        F655   1.358   1_554  S
C651        C652   1.416       .  A
C652        F653   1.358       .  S
C657        C658   1.407       .  A
C657        C662   1.392       .  A
C657        F664   1.358       .  S
C658        C659   1.407       .  A
C659        C660   1.391       .  A
C659        F666   1.358       .  S
C660        C661   1.406       .  A
C660        F665   1.358       .  S
C661        C662   1.406       .  A
C662        F663   1.358       .  S
C667        C668   1.407       .  A
C667        C672   1.393       .  A
C667        F674   1.358       .  S
C668        C669   1.403       .  A
C669        C670   1.391       .  A
C669        F676   1.358       .  S
C670        C671   1.408       .  A
C670        F675   1.358       .  S
C671        C672   1.405       .  A
C672        F673   1.358       .  S
C677        C678   1.405       .  A
C677        C682   1.397   1_545  A
C677        F684   1.358       .  S
C678        C679   1.413       .  A
C679        C680   1.402   1_545  A
C679        F686   1.358       .  S
C680        C681   1.409       .  A
C680        F685   1.358       .  S
C681        C682   1.415       .  A
C682        F683   1.358       .  S
C687        C688   1.417       .  A
C687        C692   1.400   1_455  A
C687        F694   1.358       .  S
C688        C689   1.406       .  A
C689        C690   1.402   1_455  A
C689        F696   1.358       .  S
C690        C691   1.416       .  A
C690        F695   1.358       .  S
C691        C692   1.405       .  A
C692        F693   1.358       .  S
C697        C698   1.402       .  A
C697        C702   1.389       .  A
C697        F704   1.358       .  S
C698        C699   1.405       .  A
C699        C700   1.389       .  A
C699        F706   1.358       .  S
C700        C701   1.401       .  A
C700        F705   1.358       .  S
C701        C702   1.406       .  A
C702        F703   1.359       .  S
C707        C708   1.410       .  A
C707        C712   1.406       .  A
C707        F714   1.358       .  S
C708        C709   1.409       .  A
C709        C710   1.406       .  A
C709        F716   1.358       .  S
C710        C711   1.412       .  A
C710        F715   1.358       .  S
C711        C712   1.410       .  A
C712        F713   1.358       .  S
C717        C718   1.418       .  A
C717        C722   1.402       .  A
C717        F724   1.358       .  S
C718        C719   1.407       .  A
C719        C720   1.403       .  A
C719        F726   1.358       .  S
C720        C721   1.416       .  A
C720        F725   1.358       .  S
C721        C722   1.406       .  A
C722        F723   1.358       .  S
C727        C728   1.407       .  A
C727        C732   1.403       .  A
C727        F734   1.358       .  S
C728        C729   1.416       .  A
C729        C730   1.400       .  A
C729        F736   1.358       .  S
C730        C731   1.406       .  A
C730        F735   1.358       .  S
C731        C732   1.416       .  A
C732        F733   1.358       .  S
C737        C738   1.407       .  A
C737        C742   1.405       .  A
C737        F744   1.358       .  S
C738        C739   1.407       .  A
C739        C740   1.407       .  A
C739        F746   1.358       .  S
C740        C741   1.413       .  A
C740        F745   1.357       .  S
C741        C742   1.413       .  A
C742        F743   1.358       .  S
C747        C748   1.409       .  A
C747        C752   1.407       .  A
C747        F754   1.358   1_554  S
C748        C749   1.408       .  A
C749        C750   1.404       .  A
C749        F756   1.358       .  S
C750        C751   1.411       .  A
C750        F755   1.358       .  S
C751        C752   1.411       .  A
C752        F753   1.358       .  S
C757        C758   1.407       .  A
C757        C762   1.390       .  A
C757        F764   1.358       .  S
C758        C759   1.411       .  A
C759        C760   1.391       .  A
C759        F766   1.358       .  S
C760        C761   1.407       .  A
C760        F765   1.358       .  S
C761        C762   1.411       .  A
C762        F763   1.359       .  S
C767        C768   1.406       .  A
C767        C772   1.400       .  A
C767        F774   1.357       .  S
C768        C769   1.417       .  A
C769        C770   1.400       .  A
C769        F776   1.358   1_556  S
C770        C771   1.406       .  A
C770        F775   1.358   1_556  S
C771        C772   1.415       .  A
C772        F773   1.358       .  S
C777        C778   1.405       .  A
C777        C782   1.401       .  A
C777        F784   1.358       .  S
C778        C779   1.415       .  A
C779        C780   1.403       .  A
C779        F786   1.358       .  S
C780        C781   1.408       .  A
C780        F785   1.357       .  S
C781        C782   1.418       .  A
C782        F783   1.358       .  S
C787        C788   1.403       .  A
C787        C792   1.389       .  A
C787        F794   1.359       .  S
C788        C789   1.404       .  A
C789        C790   1.388       .  A
C789        F796   1.358       .  S
C790        C791   1.404       .  A
C790        F795   1.358       .  S
C791        C792   1.407       .  A
C792        F793   1.358       .  S
C797        C798   1.406       .  A
C797        C802   1.389       .  A
C797        F804   1.358       .  S
C798        C799   1.404       .  A
C799        C800   1.389       .  A
C799        F806   1.359       .  S
C800        C801   1.408       .  A
C800        F805   1.359       .  S
C801        C802   1.405       .  A
C802        F803   1.358       .  S
C807        C808   1.413       .  A
C807        C812   1.398   1_565  A
C807        F814   1.358       .  S
C808        C809   1.406       .  A
C809        C810   1.400   1_565  A
C809        F816   1.358       .  S
C810        C811   1.415       .  A
C810        F815   1.358       .  S
C811        C812   1.406       .  A
C812        F813   1.358       .  S
C817        C818   1.414       .  A
C817        C822   1.398   1_655  A
C817        F824   1.358       .  S
C818        C819   1.408       .  A
C819        C820   1.401   1_655  A
C819        F826   1.358       .  S
C820        C821   1.413       .  A
C820        F825   1.358       .  S
C821        C822   1.406       .  A
C822        F823   1.358       .  S
C827        C828   1.408       .  A
C827        C832   1.388       .  A
C827        F834   1.358       .  S
C828        C829   1.408       .  A
C829        C830   1.390       .  A
C829        F836   1.359       .  S
C830        C831   1.408       .  A
C830        F835   1.359       .  S
C831        C832   1.406       .  A
C832        F833   1.358       .  S
C837        C838   1.410       .  A
C837        C842   1.406       .  A
C837        F844   1.358       .  S
C838        C839   1.409       .  A
C839        C840   1.400       .  A
C839        F846   1.358       .  S
C840        C841   1.409       .  A
C840        F845   1.358       .  S
C841        C842   1.410       .  A
C842        F843   1.358   1_556  S
C847        C848   1.410       .  A
C847        C852   1.394       .  A
C847        F854   1.358       .  S
C848        C849   1.407   1_554  A
C849        C850   1.392       .  A
C849        F856   1.358       .  S
C850        C851   1.408       .  A
C850        F855   1.358       .  S
C851        C852   1.406   1_556  A
C852        F853   1.358       .  S
C857        C858   1.416       .  A
C857        C862   1.398       .  A
C857        F864   1.358       .  S
C858        C859   1.407       .  A
C859        C860   1.405       .  A
C859        F866   1.358   1_554  S
C860        C861   1.417       .  A
C860        F865   1.358   1_554  S
C861        C862   1.405       .  A
C862        F863   1.358       .  S
C867        C868   1.405       .  A
C867        C872   1.396       .  A
C867        F874   1.358       .  S
C868        C869   1.416       .  A
C869        C870   1.397       .  A
C869        F876   1.359   1_554  S
C870        C871   1.404       .  A
C870        F875   1.358   1_554  S
C871        C872   1.414       .  A
C872        F873   1.358       .  S
C877        C878   1.407       .  A
C877        C882   1.404       .  A
C877        F884   1.358       .  S
C878        C879   1.409       .  A
C879        C880   1.406       .  A
C879        F886   1.358       .  S
C880        C881   1.413       .  A
C880        F885   1.358       .  S
C881        C882   1.411       .  A
C882        F883   1.357       .  S
C887        C888   1.413       .  A
C887        C892   1.408       .  A
C887        F894   1.358       .  S
C888        C889   1.410       .  A
C889        C890   1.402       .  A
C889        F896   1.358       .  S
C890        C891   1.408       .  A
C890        F895   1.358       .  S
C891        C892   1.409       .  A
C892        F893   1.358       .  S
C897        C898   1.409       .  A
C897        C902   1.392       .  A
C897        F904   1.358       .  S
C898        C899   1.408       .  A
C899        C900   1.391       .  A
C899        F906   1.358       .  S
C900        C901   1.408       .  A
C900        F905   1.358       .  S
C901        C902   1.407       .  A
C902        F903   1.359       .  S
C907        C908   1.406       .  A
C907        C912   1.390       .  A
C907        F914   1.358       .  S
C908        C909   1.404       .  A
C909        C910   1.389       .  A
C909        F916   1.358       .  S
C910        C911   1.405       .  A
C910        F915   1.358       .  S
C911        C912   1.405       .  A
C912        F913   1.359       .  S
C917        C918   1.406       .  A
C917        C922   1.401       .  A
C917        F924   1.358       .  S
C918        C919   1.417       .  A
C919        C920   1.405       .  A
C919        F926   1.358       .  S
C920        C921   1.407       .  A
C920        F925   1.358       .  S
C921        C922   1.417       .  A
C922        F923   1.358       .  S
C927        C928   1.407       .  A
C927        C932   1.402       .  A
C927        F934   1.358       .  S
C928        C929   1.415       .  A
C929        C930   1.397       .  A
C929        F936   1.358       .  S
C930        C931   1.405       .  A
C930        F935   1.358       .  S
C931        C932   1.415       .  A
C932        F933   1.358       .  S
